# File generated by Flopy version 3.3.5 on 03/25/2023 at 05:38:42.
BEGIN options
END options

BEGIN timing
  TDIS6  TLnewtest2sfb2.tdis
END timing

BEGIN models
  gwf6  TLnewtest2sfb2.nam  TLnewtest2sfb2
END models

BEGIN exchanges
END exchanges

BEGIN solutiongroup  1
  ims6  TLnewtest2sfb2.ims  TLnewtest2sfb2
END solutiongroup  1

