# File generated by Flopy version 3.3.5 on 03/25/2023 at 05:38:42.
BEGIN options
  ALTERNATIVE_CELL_AVERAGING  amt-hmk
END options

BEGIN griddata
  icelltype
    CONSTANT  1
  k  LAYERED
    CONSTANT       3.85034815
    CONSTANT       0.00928753
    CONSTANT  3.78007137E-04
  k33  LAYERED
    CONSTANT       0.31586390
    CONSTANT       0.00733669
    CONSTANT  3.78007137E-04
END griddata

