# File generated by Flopy version 3.3.5 on 03/25/2023 at 05:38:42.
BEGIN griddata
  strt  LAYERED
    INTERNAL  FACTOR  1.0
                  NAN              NAN              NAN              NAN              NAN              NAN              NAN              NAN    1650.28363409              NAN              NAN              NAN              NAN              NAN              NAN              NAN              NAN              NAN              NAN              NAN              NAN              NAN              NAN              NAN              NAN              NAN              NAN              NAN              NAN              NAN              NAN
                  NAN              NAN              NAN              NAN              NAN              NAN              NAN    1649.99740573    1649.49540942    1649.62635246    1649.43716908    1649.02227721              NAN              NAN              NAN              NAN              NAN              NAN              NAN              NAN              NAN              NAN              NAN              NAN              NAN              NAN              NAN              NAN              NAN              NAN              NAN
                  NAN              NAN              NAN              NAN              NAN              NAN    1648.89801423    1648.75489915    1648.52020843    1648.36031275    1648.20965713    1647.94762077    1647.50790091              NAN              NAN              NAN              NAN              NAN              NAN              NAN              NAN              NAN              NAN              NAN              NAN              NAN              NAN              NAN              NAN              NAN              NAN
                  NAN              NAN              NAN              NAN              NAN              NAN    1647.76048794    1647.55171730    1647.36749452    1646.84611992    1646.73052691    1646.66279237    1646.35220471    1646.00998961              NAN              NAN              NAN              NAN              NAN              NAN              NAN              NAN              NAN              NAN              NAN              NAN              NAN              NAN              NAN              NAN              NAN
                  NAN              NAN              NAN              NAN              NAN    1646.66902243    1646.68129008    1646.34386010    1646.05288600    1645.33318152    1645.44838046    1645.11734219    1645.30570547    1645.01589768    1644.67196996              NAN              NAN              NAN              NAN              NAN              NAN              NAN              NAN              NAN              NAN              NAN              NAN              NAN              NAN              NAN              NAN
                  NAN              NAN              NAN              NAN              NAN    1645.47841586    1645.47612668    1645.25324218    1644.93942220    1644.30776267    1643.86113588    1643.44495027    1643.56773219    1643.47907966    1643.13033181    1642.97065318    1642.34906475              NAN              NAN              NAN              NAN              NAN              NAN              NAN              NAN              NAN              NAN              NAN              NAN              NAN              NAN
                  NAN              NAN              NAN              NAN    1644.69094767    1644.39516508    1644.17914657    1643.98898392    1643.77842586    1642.68967263    1642.05830875    1641.51772022    1641.78973789    1641.62528803    1641.38245315    1641.37877877    1640.96243878    1640.72549657              NAN              NAN              NAN              NAN              NAN              NAN              NAN              NAN              NAN              NAN              NAN              NAN              NAN
                  NAN              NAN              NAN    1643.71026161    1643.56256010    1643.25571795    1643.03839817    1642.71543162    1642.19146170    1641.25713329    1639.84798340    1639.04744629    1639.52289583    1639.48702171    1639.52629541    1639.44411298    1639.42122875    1639.42050122    1639.11341395    1638.34970404              NAN              NAN              NAN              NAN              NAN              NAN              NAN              NAN              NAN              NAN              NAN
                  NAN              NAN              NAN    1642.43816893    1642.35143736    1641.90842847    1641.37319174    1640.88584684    1640.24196468    1639.15807083    1637.63497070    1636.16597656    1636.77436633    1636.92769575    1636.98893284    1637.08544484    1637.37574630    1637.63369192    1637.53043587    1636.79739377    1636.22578020    1635.75500542              NAN              NAN              NAN              NAN              NAN              NAN              NAN              NAN              NAN
                  NAN              NAN              NAN    1641.41845443    1640.94062550    1640.39916791    1639.77245492    1639.27978551    1638.49674609    1637.39903091    1635.67111932    1633.97579102    1634.66402344    1634.83837817    1634.77376465    1634.85323242    1635.82563410    1635.96974623    1635.70198350    1635.55006140    1635.15644627    1634.74734900    1634.21936018              NAN              NAN              NAN              NAN              NAN              NAN              NAN              NAN
                  NAN              NAN    1640.65537889    1640.28697383    1639.43883367    1638.42776512    1637.79690578    1637.10610326    1636.45724570    1635.42816777    1634.03920099    1632.51827148    1632.28719238    1632.57468536    1632.80255773    1633.20495265    1633.71636925    1633.88526330    1633.78242626    1633.75600401    1633.32002930    1633.57494751    1633.19084704              NAN              NAN              NAN              NAN              NAN              NAN              NAN              NAN
                  NAN    1640.03251853    1639.99937147    1639.47069980    1638.40146934    1637.10487917    1636.11049232    1635.10651527    1634.60245702    1633.76253928    1632.74687878    1631.40828613    1629.95503906    1630.32857422    1630.59749512    1631.59988375    1631.99205905    1631.85002377    1631.78799786    1631.58949953    1631.52120117    1632.11131466    1632.29057225    1631.66651416              NAN              NAN              NAN              NAN              NAN              NAN              NAN
                  NAN    1639.63949804    1639.61428325    1639.04845864    1637.79375763    1636.43415424    1634.92469435    1633.43514303    1632.73117341    1631.95667012    1631.09578517    1629.94679518    1628.53719238    1628.32125000    1628.49251465    1629.78702200    1629.77631854    1629.91237694    1629.86287588    1629.36647684    1629.72176270    1630.65147356    1631.07303078    1630.52368630              NAN              NAN              NAN              NAN              NAN              NAN              NAN
                  NAN    1639.44183117    1639.42688053    1638.81984708    1637.61994647    1636.09039997    1634.27692942    1632.56163196    1631.42060106    1630.35932017    1629.45714997    1628.48299975    1627.26875977    1626.47994141    1626.82747559    1627.80516110    1627.75994061    1627.80353911    1627.72944002    1627.48540374    1627.92745117    1629.09313989    1629.74985594    1629.41357956    1629.01168575              NAN              NAN              NAN              NAN              NAN              NAN
                  NAN    1639.29248158    1639.28030863    1638.64998429    1637.56009874    1636.07256289    1634.22728382    1632.13839822    1630.58778179    1629.21892599    1627.99251465    1626.88667969    1625.82137207    1624.70638184    1625.13277344    1625.70775804    1625.70879228    1625.57519237    1625.63487204    1625.67546722    1626.43001465    1627.55533571    1628.21724194    1628.07509053    1627.99515574              NAN              NAN              NAN              NAN              NAN              NAN
                  NAN    1639.07796433    1638.89966176    1638.34293640    1637.51792493    1635.99913230    1634.39826807    1632.15930650    1630.23080660    1628.77902211    1627.11017372    1625.54671387    1624.23580078    1623.03670410    1623.03096680    1623.33236054    1623.43771684    1623.39404514    1623.33030897    1623.76424316    1624.88950342    1625.83393952    1626.53184008    1626.61805265    1626.72700645              NAN              NAN              NAN              NAN              NAN              NAN
                  NAN              NAN    1638.35371567    1638.14750921    1637.35053048    1635.83905228    1634.39254242    1632.26900756    1630.31196270    1628.75573253    1626.95894772    1625.07424114    1623.18001465    1621.17720703    1620.73091797    1621.05916504    1621.24933969    1621.08121243    1620.79598145    1621.88667969    1623.00931765    1623.98028830    1625.05564139    1625.26129183    1625.38616056              NAN              NAN              NAN              NAN              NAN              NAN
                  NAN              NAN    1637.95244081    1637.81028282    1637.05920693    1635.67576597    1634.24272080    1632.16066914    1630.33150829    1628.61777989    1626.84460422    1624.81588708    1622.64425559    1620.88594727    1618.92208008    1618.78597168    1618.88423828    1618.76827148    1618.61751465    1620.29372684    1621.24344788    1622.44500908    1623.47096215    1623.91491114    1623.96090585              NAN              NAN              NAN              NAN              NAN              NAN
                  NAN              NAN    1637.41254212    1637.19852142    1636.55274084    1635.27821747    1633.80453261    1631.88710672    1629.99190763    1628.30983821    1626.49315445    1624.44459089    1622.09444603    1620.11562942    1618.32016331    1616.34004883    1616.58296875    1616.62593750    1617.50276855    1618.68551738    1619.54488707    1621.13192758    1622.14547972    1622.37430084    1622.41706496    1622.16358451              NAN              NAN              NAN              NAN              NAN
                  NAN              NAN              NAN    1636.35698815    1635.89054091    1634.65710171    1633.26184175    1631.51915590    1629.79710458    1627.83481827    1626.01039125    1623.59654036    1621.22433208    1619.19517733    1617.36199401    1615.33504395    1614.43562988    1614.73250488    1616.18185665    1616.72750000    1618.54744629    1619.91832752    1620.52703739    1620.86165031    1620.91777719    1620.48780984              NAN              NAN              NAN              NAN              NAN
                  NAN              NAN              NAN              NAN    1634.82796647    1633.97337482    1632.89003094    1631.20932300    1629.22074232    1627.26308751    1625.36963399    1623.14516728    1620.61812392    1618.41746186    1616.61285995    1614.74666504    1613.04280762    1613.11995605    1614.05208496    1615.09364481    1616.95901583    1618.35646418    1619.06653213    1619.11470153    1619.18107194    1618.92929914              NAN              NAN              NAN              NAN              NAN
                  NAN              NAN              NAN              NAN              NAN    1633.30630098    1632.37361197    1630.85535865    1628.82201004    1626.64014120    1624.85584721    1622.46290582    1620.24443686    1618.12769286    1616.34008427    1614.34004883    1612.29000000    1611.42281250    1612.23213867    1613.67293457    1615.45366129    1616.81865245    1617.53164351    1617.69365461    1617.63795728    1617.51199418              NAN              NAN              NAN              NAN              NAN
                  NAN              NAN              NAN              NAN              NAN              NAN    1631.77781173    1630.31012439    1628.34442155    1626.40495311    1624.53863203    1622.33499236    1620.25320947    1618.19074621    1616.10994629    1614.16597656    1612.14754395    1610.05403809    1610.60677246    1612.24703125    1613.77612922    1614.91994615    1615.54359868    1615.76675200    1616.08782681    1615.84552781    1615.20065380              NAN              NAN              NAN              NAN
                  NAN              NAN              NAN              NAN              NAN              NAN              NAN    1629.62059490    1628.19191307    1626.30856389    1624.42302973    1622.47413543    1620.38170139    1618.49054428    1616.53206543    1614.46175293    1612.24996094    1609.92745117    1608.99410156    1609.90828613    1611.23749554    1612.40568319    1613.25091148    1613.68394535    1614.05040263    1613.90234228    1613.35494542    1612.37695125              NAN              NAN              NAN
                  NAN              NAN              NAN              NAN              NAN              NAN              NAN              NAN    1627.62288366    1626.17315605    1624.46789075    1622.58040413    1620.71144032    1618.94388200    1617.22596323    1615.23122701    1613.12581543    1610.72322754    1608.23494629    1606.78829102    1608.60549463    1610.02085347    1610.91520210    1611.58429533    1611.95897473    1611.94642285    1611.37436133    1610.53322061    1609.32799588              NAN              NAN
                  NAN              NAN              NAN              NAN              NAN              NAN              NAN              NAN              NAN    1625.75787784    1624.28447136    1622.69232881    1621.29168704    1619.44566531    1617.89600851    1615.94176181    1613.96907834    1612.05968768    1609.85024829    1607.36995605    1606.05208496    1607.88558052    1608.72091502    1609.26312903    1609.54051794    1609.57659764    1609.23973411    1608.66043900    1607.38170934              NAN              NAN
                  NAN              NAN              NAN              NAN              NAN              NAN              NAN              NAN              NAN              NAN              NAN    1623.02501343    1621.24603070    1619.72682958    1618.29125629    1616.52435815    1614.60127159    1612.86177259    1610.90891818    1608.90669922    1606.37245167    1605.11202148    1606.51359620    1606.84272534    1606.67323115    1606.76241097    1606.53409244    1606.26051778    1605.44689236              NAN              NAN
                  NAN              NAN              NAN              NAN              NAN              NAN              NAN              NAN              NAN              NAN              NAN              NAN    1621.10882758    1619.92479628    1618.60499082    1616.87318742    1615.06273865    1613.52606220    1611.80536275    1609.89136675    1607.70946089    1605.40999512    1604.20589355    1604.31860579    1603.80965867    1603.46138672    1603.60309925    1603.60925615    1602.95695770              NAN              NAN
                  NAN              NAN              NAN              NAN              NAN              NAN              NAN              NAN              NAN              NAN              NAN              NAN              NAN    1619.85742673    1618.77730524    1617.35352124    1615.60438034    1614.20048070    1612.35861903    1610.69389385    1608.65575679    1606.65740714    1604.41255859    1602.17500977    1601.31331543    1600.23995117    1600.47750000    1600.65999512    1600.41020311              NAN              NAN
                  NAN              NAN              NAN              NAN              NAN              NAN              NAN              NAN              NAN              NAN              NAN              NAN              NAN              NAN    1618.85096783    1617.70901398    1616.11479535    1614.59477376    1612.85039518    1611.14852048    1609.50252558    1607.96671290    1606.10664968    1604.22994141    1602.50325684    1600.92830566    1598.61824707    1597.73494629    1598.02568223              NAN              NAN
                  NAN              NAN              NAN              NAN              NAN              NAN              NAN              NAN              NAN              NAN              NAN              NAN              NAN              NAN              NAN    1617.78125760    1616.68479605    1615.14954216    1613.58684899    1611.92294554    1610.38967423    1608.94021916    1607.69393099    1605.78972021    1604.14509774    1602.30000977    1600.05000977    1597.73995117    1595.89668945              NAN              NAN
                  NAN              NAN              NAN              NAN              NAN              NAN              NAN              NAN              NAN              NAN              NAN              NAN              NAN              NAN              NAN    1617.52056387    1616.76568261    1616.03200419    1614.73240172    1612.86069332    1611.36524970    1609.99359606    1608.97858175    1607.20578941    1605.42047225    1603.46620988    1601.60952831    1599.19748236    1596.77864746    1594.57137207              NAN
                  NAN              NAN              NAN              NAN              NAN              NAN              NAN              NAN              NAN              NAN              NAN              NAN              NAN              NAN              NAN              NAN    1617.14338140    1616.53400452    1615.65139544    1613.97670871    1612.38466670    1611.10494628    1610.03544154    1608.39393563    1606.52611671    1604.61495659    1602.77465189    1600.54002429    1598.27327637    1595.79000000    1593.08003906
                  NAN              NAN              NAN              NAN              NAN              NAN              NAN              NAN              NAN              NAN              NAN              NAN              NAN              NAN              NAN              NAN              NAN    1616.69260885    1616.08443504    1614.66904320    1613.39957003    1612.11376151    1610.99766393    1609.35662653    1607.60046432    1605.79458343    1603.88166844    1601.69548129    1599.64292691    1597.42980842              NAN
                  NAN              NAN              NAN              NAN              NAN              NAN              NAN              NAN              NAN              NAN              NAN              NAN              NAN              NAN              NAN              NAN              NAN              NAN    1616.33932112    1615.20074462    1614.10980466    1613.01558882    1611.71384018    1609.94310913    1608.27840731    1606.42747362    1604.36264176    1602.29324493    1600.28817555              NAN              NAN
                  NAN              NAN              NAN              NAN              NAN              NAN              NAN              NAN              NAN              NAN              NAN              NAN              NAN              NAN              NAN              NAN              NAN              NAN    1616.12787649    1615.43573095    1614.53905063    1613.60696089    1612.41503804    1610.54860580    1608.87690731    1607.01186644    1604.96101547    1602.88949515              NAN              NAN              NAN
                  NAN              NAN              NAN              NAN              NAN              NAN              NAN              NAN              NAN              NAN              NAN              NAN              NAN              NAN              NAN              NAN              NAN              NAN              NAN    1615.69882401    1614.73736351    1613.99980578    1612.97512188    1611.27172514    1609.52363008    1607.65863624              NAN              NAN              NAN              NAN              NAN
    INTERNAL  FACTOR  1.0
                  NAN              NAN              NAN              NAN              NAN              NAN              NAN              NAN    1650.28363409              NAN              NAN              NAN              NAN              NAN              NAN              NAN              NAN              NAN              NAN              NAN              NAN              NAN              NAN              NAN              NAN              NAN              NAN              NAN              NAN              NAN              NAN
                  NAN              NAN              NAN              NAN              NAN              NAN              NAN    1649.99740573    1649.49540942    1649.62635246    1649.43716908    1649.02227721              NAN              NAN              NAN              NAN              NAN              NAN              NAN              NAN              NAN              NAN              NAN              NAN              NAN              NAN              NAN              NAN              NAN              NAN              NAN
                  NAN              NAN              NAN              NAN              NAN              NAN    1648.89801423    1648.75489915    1648.52020843    1648.36031275    1648.20965713    1647.94762077    1647.50790091              NAN              NAN              NAN              NAN              NAN              NAN              NAN              NAN              NAN              NAN              NAN              NAN              NAN              NAN              NAN              NAN              NAN              NAN
                  NAN              NAN              NAN              NAN              NAN              NAN    1647.76048794    1647.55171730    1647.36749452    1646.84611992    1646.73052691    1646.66279237    1646.35220471    1646.00998961              NAN              NAN              NAN              NAN              NAN              NAN              NAN              NAN              NAN              NAN              NAN              NAN              NAN              NAN              NAN              NAN              NAN
                  NAN              NAN              NAN              NAN              NAN    1646.66902243    1646.68129008    1646.34386010    1646.05288600    1645.33318152    1645.44838046    1645.11734219    1645.30570547    1645.01589768    1644.67196996              NAN              NAN              NAN              NAN              NAN              NAN              NAN              NAN              NAN              NAN              NAN              NAN              NAN              NAN              NAN              NAN
                  NAN              NAN              NAN              NAN              NAN    1645.47841586    1645.47612668    1645.25324218    1644.93942220    1644.30776267    1643.86113588    1643.44495027    1643.56773219    1643.47907966    1643.13033181    1642.97065318    1642.34906475              NAN              NAN              NAN              NAN              NAN              NAN              NAN              NAN              NAN              NAN              NAN              NAN              NAN              NAN
                  NAN              NAN              NAN              NAN    1644.69094767    1644.39516508    1644.17914657    1643.98898392    1643.77842586    1642.68967263    1642.05830875    1641.51772022    1641.78973789    1641.62528803    1641.38245315    1641.37877877    1640.96243878    1640.72549657              NAN              NAN              NAN              NAN              NAN              NAN              NAN              NAN              NAN              NAN              NAN              NAN              NAN
                  NAN              NAN              NAN    1643.71026161    1643.56256010    1643.25571795    1643.03839817    1642.71543162    1642.19146170    1641.25713329    1639.84798340    1639.04744629    1639.52289583    1639.48702171    1639.52629541    1639.44411298    1639.42122875    1639.42050122    1639.11341395    1638.34970404              NAN              NAN              NAN              NAN              NAN              NAN              NAN              NAN              NAN              NAN              NAN
                  NAN              NAN              NAN    1642.43816893    1642.35143736    1641.90842847    1641.37319174    1640.88584684    1640.24196468    1639.15807083    1637.63497070    1636.16597656    1636.77436633    1636.92769575    1636.98893284    1637.08544484    1637.37574630    1637.63369192    1637.53043587    1636.79739377    1636.22578020    1635.75500542              NAN              NAN              NAN              NAN              NAN              NAN              NAN              NAN              NAN
                  NAN              NAN              NAN    1641.41845443    1640.94062550    1640.39916791    1639.77245492    1639.27978551    1638.49674609    1637.39903091    1635.67111932    1633.97579102    1634.66402344    1634.83837817    1634.77376465    1634.85323242    1635.82563410    1635.96974623    1635.70198350    1635.55006140    1635.15644627    1634.74734900    1634.21936018              NAN              NAN              NAN              NAN              NAN              NAN              NAN              NAN
                  NAN              NAN    1640.65537889    1640.28697383    1639.43883367    1638.42776512    1637.79690578    1637.10610326    1636.45724570    1635.42816777    1634.03920099    1632.51827148    1632.28719238    1632.57468536    1632.80255773    1633.20495265    1633.71636925    1633.88526330    1633.78242626    1633.75600401    1633.32002930    1633.57494751    1633.19084704              NAN              NAN              NAN              NAN              NAN              NAN              NAN              NAN
                  NAN    1640.03251853    1639.99937147    1639.47069980    1638.40146934    1637.10487917    1636.11049232    1635.10651527    1634.60245702    1633.76253928    1632.74687878    1631.40828613    1629.95503906    1630.32857422    1630.59749512    1631.59988375    1631.99205905    1631.85002377    1631.78799786    1631.58949953    1631.52120117    1632.11131466    1632.29057225    1631.66651416              NAN              NAN              NAN              NAN              NAN              NAN              NAN
                  NAN    1639.63949804    1639.61428325    1639.04845864    1637.79375763    1636.43415424    1634.92469435    1633.43514303    1632.73117341    1631.95667012    1631.09578517    1629.94679518    1628.53719238    1628.32125000    1628.49251465    1629.78702200    1629.77631854    1629.91237694    1629.86287588    1629.36647684    1629.72176270    1630.65147356    1631.07303078    1630.52368630              NAN              NAN              NAN              NAN              NAN              NAN              NAN
                  NAN    1639.44183117    1639.42688053    1638.81984708    1637.61994647    1636.09039997    1634.27692942    1632.56163196    1631.42060106    1630.35932017    1629.45714997    1628.48299975    1627.26875977    1626.47994141    1626.82747559    1627.80516110    1627.75994061    1627.80353911    1627.72944002    1627.48540374    1627.92745117    1629.09313989    1629.74985594    1629.41357956    1629.01168575              NAN              NAN              NAN              NAN              NAN              NAN
                  NAN    1639.29248158    1639.28030863    1638.64998429    1637.56009874    1636.07256289    1634.22728382    1632.13839822    1630.58778179    1629.21892599    1627.99251465    1626.88667969    1625.82137207    1624.70638184    1625.13277344    1625.70775804    1625.70879228    1625.57519237    1625.63487204    1625.67546722    1626.43001465    1627.55533571    1628.21724194    1628.07509053    1627.99515574              NAN              NAN              NAN              NAN              NAN              NAN
                  NAN    1639.07796433    1638.89966176    1638.34293640    1637.51792493    1635.99913230    1634.39826807    1632.15930650    1630.23080660    1628.77902211    1627.11017372    1625.54671387    1624.23580078    1623.03670410    1623.03096680    1623.33236054    1623.43771684    1623.39404514    1623.33030897    1623.76424316    1624.88950342    1625.83393952    1626.53184008    1626.61805265    1626.72700645              NAN              NAN              NAN              NAN              NAN              NAN
                  NAN              NAN    1638.35371567    1638.14750921    1637.35053048    1635.83905228    1634.39254242    1632.26900756    1630.31196270    1628.75573253    1626.95894772    1625.07424114    1623.18001465    1621.17720703    1620.73091797    1621.05916504    1621.24933969    1621.08121243    1620.79598145    1621.88667969    1623.00931765    1623.98028830    1625.05564139    1625.26129183    1625.38616056              NAN              NAN              NAN              NAN              NAN              NAN
                  NAN              NAN    1637.95244081    1637.81028282    1637.05920693    1635.67576597    1634.24272080    1632.16066914    1630.33150829    1628.61777989    1626.84460422    1624.81588708    1622.64425559    1620.88594727    1618.92208008    1618.78597168    1618.88423828    1618.76827148    1618.61751465    1620.29372684    1621.24344788    1622.44500908    1623.47096215    1623.91491114    1623.96090585              NAN              NAN              NAN              NAN              NAN              NAN
                  NAN              NAN    1637.41254212    1637.19852142    1636.55274084    1635.27821747    1633.80453261    1631.88710672    1629.99190763    1628.30983821    1626.49315445    1624.44459089    1622.09444603    1620.11562942    1618.32016331    1616.34004883    1616.58296875    1616.62593750    1617.50276855    1618.68551738    1619.54488707    1621.13192758    1622.14547972    1622.37430084    1622.41706496    1622.16358451              NAN              NAN              NAN              NAN              NAN