# File generated by Flopy version 3.3.5 on 03/25/2023 at 05:38:42.
BEGIN options
END options

BEGIN griddata
  iconvert  LAYERED
    INTERNAL  FACTOR  1
      1  1  1  1  1  1  1  1  1  1  1  1  1  1  1  1  1  1  1  1  1  1  1  1  1  1  1  1  1  1  1
      1  1  1  1  1  1  1  1  1  1  1  1  1  1  1  1  1  1  1  1  1  1  1  1  1  1  1  1  1  1  1
      1  1  1  1  1  1  1  1  1  1  1  1  1  1  1  1  1  1  1  1  1  1  1  1  1  1  1  1  1  1  1
      1  1  1  1  1  1  1  1  1  1  1  1  1  1  1  1  1  1  1  1  1  1  1  1  1  1  1  1  1  1  1
      1  1  1  1  1  1  1  1  1  1  1  1  1  1  1  1  1  1  1  1  1  1  1  1  1  1  1  1  1  1  1
      1  1  1  1  1  1  1  1  1  1  1  1  1  1  1  1  1  1  1  1  1  1  1  1  1  1  1  1  1  1  1
      1  1  1  1  1  1  1  1  1  1  1  1  1  1  1  1  1  1  1  1  1  1  1  1  1  1  1  1  1  1  1
      1  1  1  1  1  1  1  1  1  1  1  1  1  1  1  1  1  1  1  1  1  1  1  1  1  1  1  1  1  1  1
      1  1  1  1  1  1  1  1  1  1  1  1  1  1  1  1  1  1  1  1  1  1  1  1  1  1  1  1  1  1  1
      1  1  1  1  1  1  1  1  1  1  1  1  1  1  1  1  1  1  1  1  1  1  1  1  1  1  1  1  1  1  1
      1  1  1  1  1  1  1  1  1  1  1  1  1  1  1  1  1  1  1  1  1  1  1  1  1  1  1  1  1  1  1
      1  1  1  1  1  1  1  1  1  1  1  1  1  1  1  1  1  1  1  1  1  1  1  1  1  1  1  1  1  1  1
      1  1  1  1  1  1  1  1  1  1  1  1  1  1  1  1  1  1  1  1  1  1  1  1  1  1  1  1  1  1  1
      1  1  1  1  1  1  1  1  1  1  1  1  1  1  1  1  1  1  1  1  1  1  1  1  1  1  1  1  1  1  1
      1  1  1  1  1  1  1  1  1  1  1  1  1  1  1  1  1  1  1  1  1  1  1  1  1  1  1  1  1  1  1
      1  1  1  1  1  1  1  1  1  1  1  1  1  1  1  1  1  1  1  1  1  1  1  1  1  1  1  1  1  1  1
      1  1  1  1  1  1  1  1  1  1  1  1  1  1  1  1  1  1  1  1  1  1  1  1  1  1  1  1  1  1  1
      1  1  1  1  1  1  1  1  1  1  1  1  1  1  1  1  1  1  1  1  1  1  1  1  1  1  1  1  1  1  1
      1  1  1  1  1  1  1  1  1  1  1  1  1  1  1  1  1  1  1  1  1  1  1  1  1  1  1  1  1  1  1
      1  1  1  1  1  1  1  1  1  1  1  1  1  1  1  1  1  1  1  1  1  1  1  1  1  1  1  1  1  1  1
      1  1  1  1  1  1  1  1  1  1  1  1  1  1  1  1  1  1  1  1  1  1  1  1  1  1  1  1  1  1  1
      1  1  1  1  1  1  1  1  1  1  1  1  1  1  1  1  1  1  1  1  1  1  1  1  1  1  1  1  1  1  1
      1  1  1  1  1  1  1  1  1  1  1  1  1  1  1  1  1  1  1  1  1  1  1  1  1  1  1  1  1  1  1
      1  1  1  1  1  1  1  1  1  1  1  1  1  1  1  1  1  1  1  1  1  1  1  1  1  1  1  1  1  1  1
      1  1  1  1  1  1  1  1  1  1  1  1  1  1  1  1  1  1  1  1  1  1  1  1  1  1  1  1  1  1  1
      1  1  1  1  1  1  1  1  1  1  1  1  1  1  1  1  1  1  1  1  1  1  1  1  1  1  1  1  1  1  1
      1  1  1  1  1  1  1  1  1  1  1  1  1  1  1  1  1  1  1  1  1  1  1  1  1  1  1  1  1  1  1
      1  1  1  1  1  1  1  1  1  1  1  1  1  1  1  1  1  1  1  1  1  1  1  1  1  1  1  1  1  1  1
      1  1  1  1  1  1  1  1  1  1  1  1  1  1  1  1  1  1  1  1  1  1  1  1  1  1  1  1  1  1  1
      1  1  1  1  1  1  1  1  1  1  1  1  1  1  1  1  1  1  1  1  1  1  1  1  1  1  1  1  1  1  1
      1  1  1  1  1  1  1  1  1  1  1  1  1  1  1  1  1  1  1  1  1  1  1  1  1  1  1  1  1  1  1
      1  1  1  1  1  1  1  1  1  1  1  1  1  1  1  1  1  1  1  1  1  1  1  1  1  1  1  1  1  1  1
      1  1  1  1  1  1  1  1  1  1  1  1  1  1  1  1  1  1  1  1  1  1  1  1  1  1  1  1  1  1  1
      1  1  1  1  1  1  1  1  1  1  1  1  1  1  1  1  1  1  1  1  1  1  1  1  1  1  1  1  1  1  1
      1  1  1  1  1  1  1  1  1  1  1  1  1  1  1  1  1  1  1  1  1  1  1  1  1  1  1  1  1  1  1
      1  1  1  1  1  1  1  1  1  1  1  1  1  1  1  1  1  1  1  1  1  1  1  1  1  1  1  1  1  1  1
      1  1  1  1  1  1  1  1  1  1  1  1  1  1  1  1  1  1  1  1  1  1  1  1  1  1  1  1  1  1  1
    INTERNAL  FACTOR  1
      1  1  1  1  1  1  1  1  1  1  1  1  1  1  1  1  1  1  1  1  1  1  1  1  1  1  1  1  1  1  1
      1  1  1  1  1  1  1  1  1  1  1  1  1  1  1  1  1  1  1  1  1  1  1  1  1  1  1  1  1  1  1
      1  1  1  1  1  1  1  1  1  1  1  1  1  1  1  1  1  1  1  1  1  1  1  1  1  1  1  1  1  1  1
      1  1  1  1  1  1  1  1  1  1  1  1  1  1  1  1  1  1  1  1  1  1  1  1  1  1  1  1  1  1  1
      1  1  1  1  1  1  1  1  1  1  1  1  1  1  1  1  1  1  1  1  1  1  1  1  1  1  1  1  1  1  1
      1  1  1  1  1  1  1  1  1  1  1  1  1  1  1  1  1  1  1  1  1  1  1  1  1  1  1  1  1  1  1
      1  1  1  1  1  1  1  1  1  1  1  1  1  1  1  1  1  1  1  1  1  1  1  1  1  1  1  1  1  1  1
      1  1  1  1  1  1  1  1  1  1  1  1  1  1  1  1  1  1  1  1  1  1  1  1  1  1  1  1  1  1  1
      1  1  1  1  1  1  1  1  1  1  1  1  1  1  1  1  1  1  1  1  1  1  1  1  1  1  1  1  1  1  1
      1  1  1  1  1  1  1  1  1  1  1  1  1  1  1  1  1  1  1  1  1  1  1  1  1  1  1  1  1  1  1
      1  1  1  1  1  1  1  1  1  1  1  1  1  1  1  1  1  1  1  1  1  1  1  1  1  1  1  1  1  1  1
      1  1  1  1  1  1  1  1  1  1  1  1  1  1  1  1  1  1  1  1  1  1  1  1  1  1  1  1  1  1  1
      1  1  1  1  1  1  1  1  1  1  1  1  1  1  1  1  1  1  1  1  1  1  1  1  1  1  1  1  1  1  1
      1  1  1  1  1  1  1  1  1  1  1  1  1  1  1  1  1  1  1  1  1  1  1  1  1  1  1  1  1  1  1
      1  1  1  1  1  1  1  1  1  1  1  1  1  1  1  1  1  1  1  1  1  1  1  1  1  1  1  1  1  1  1
      1  1  1  1  1  1  1  1  1  1  1  1  1  1  1  1  1  1  1  1  1  1  1  1  1  1  1  1  1  1  1
      1  1  1  1  1  1  1  1  1  1  1  1  1  1  1  1  1  1  1  1  1  1  1  1  1  1  1  1  1  1  1
      1  1  1  1  1  1  1  1  1  1  1  1  1  1  1  1  1  1  1  1  1  1  1  1  1  1  1  1  1  1  1
      1  1  1  1  1  1  1  1  1  1  1  1  1  1  1  1  1  1  1  1  1  1  1  1  1  1  1  1  1  1  1
      1  1  1  1  1  1  1  1  1  1  1  1  1  1  1  1  1  1  1  1  1  1  1  1  1  1  1  1  1  1  1
      1  1  1  1  1  1  1  1  1  1  1  1  1  1  1  1  1  1  1  1  1  1  1  1  1  1  1  1  1  1  1
      1  1  1  1  1  1  1  1  1  1  1  1  1  1  1  1  1  1  1  1  1  1  1  1  1  1  1  1  1  1  1
      1  1  1  1  1  1  1  1  1  1  1  1  1  1  1  1  1  1  1  1  1  1  1  1  1  1  1  1  1  1  1
      1  1  1  1  1  1  1  1  1  1  1  1  1  1  1  1  1  1  1  1  1  1  1  1  1  1  1  1  1  1  1
      1  1  1  1  1  1  1  1  1  1  1  1  1  1  1  1  1  1  1  1  1  1  1  1  1  1  1  1  1  1  1
      1  1  1  1  1  1  1  1  1  1  1  1  1  1  1  1  1  1  1  1  1  1  1  1  1  1  1  1  1  1  1
      1  1  1  1  1  1  1  1  1  1  1  1  1  1  1  1  1  1  1  1  1  1  1  1  1  1  1  1  1  1  1
      1  1  1  1  1  1  1  1  1  1  1  1  1  1  1  1  1  1  1  1  1  1  1  1  1  1  1  1  1  1  1
      1  1  1  1  1  1  1  1  1  1  1  1  1  1  1  1  1  1  1  1  1  1  1  1  1  1  1  1  1  1  1
      1  1  1  1  1  1  1  1  1  1  1  1  1  1  1  1  1  1  1  1  1  1  1  1  1  1  1  1  1  1  1
      1  1  1  1  1  1  1  1  1  1  1  1  1  1  1  1  1  1  1  1  1  1  1  1  1  1  1  1  1  1  1
      1  1  1  1  1  1  1  1  1  1  1  1  1  1  1  1  1  1  1  1  1  1  1  1  1  1  1  1  1  1  1
      1  1  1  1  1  1  1  1  1  1  1  1  1  1  1  1  1  1  1  1  1  1  1  1  1  1  1  1  1  1  1
      1  1  1  1  1  1  1  1  1  1  1  1  1  1  1  1  1  1  1  1  1  1  1  1  1  1  1  1  1  1  1
      1  1  1  1  1  1  1  1  1  1  1  1  1  1  1  1  1  1  1  1  1  1  1  1  1  1  1  1  1  1  1
      1  1  1  1  1  1  1  1  1  1  1  1  1  1  1  1  1  1  1  1  1  1  1  1  1  1  1  1  1  1  1
      1  1  1  1  1  1  1  1  1  1  1  1  1  1  1  1  1  1  1  1  1  1  1  1  1  1  1  1  1  1  1
    INTERNAL  FACTOR  1
      1  1  1  1  1  1  1  1  1  1  1  1  1  1  1  1  1  1  1  1  1  1  1  1  1  1  1  1  1  1  1
      1  1  1  1  1  1  1  1  1  1  1  1  1  1  1  1  1  1  1  1  1  1  1  1  1  1  1  1  1  1  1
      1  1  1  1  1  1  1  1  1  1  1  1  1  1  1  1  1  1  1  1  1  1  1  1  1  1  1  1  1  1  1
      1  1  1  1  1  1  1  1  1  1  1  1  1  1  1  1  1  1  1  1  1  1  1  1  1  1  1  1  1  1  1
      1  1  1  1  1  1  1  1  1  1  1  1  1  1  1  1  1  1  1  1  1  1  1  1  1  1  1  1  1  1  1
      1  1  1  1  1  1  1  1  1  1  1  1  1  1  1  1  1  1  1  1  1  1  1  1  1  1  1  1  1  1  1
      1  1  1  1  1  1  1  1  1  1  1  1  1  1  1  1  1  1  1  1  1  1  1  1  1  1  1  1  1  1  1
      1  1  1  1  1  1  1  1  1  1  1  1  1  1  1  1  1  1  1  1  1  1  1  1  1  1  1  1  1  1  1
      1  1  1  1  1  1  1  1  1  1  1  1  1  1  1  1  1  1  1  1  1  1  1  1  1  1  1  1  1  1  1
      1  1  1  1  1  1  1  1  1  1  1  1  1  1  1  1  1  1  1  1  1  1  1  1  1  1  1  1  1  1  1
      1  1  1  1  1  1  1  1  1  1  1  1  1  1  1  1  1  1  1  1  1  1  1  1  1  1  1  1  1  1  1
      1  1  1  1  1  1  1  1  1  1  1  1  1  1  1  1  1  1  1  1  1  1  1  1  1  1  1  1  1  1  1
      1  1  1  1  1  1  1  1  1  1  1  1  1  1  1  1  1  1  1  1  1  1  1  1  1  1  1  1  1  1  1
      1  1  1  1  1  1  1  1  1  1  1  1  1  1  1  1  1  1  1  1  1  1  1  1  1  1  1  1  1  1  1
      1  1  1  1  1  1  1  1  1  1  1  1  1  1  1  1  1  1  1  1  1  1  1  1  1  1  1  1  1  1  1
      1  1  1  1  1  1  1  1  1  1  1  1  1  1  1  1  1  1  1  1  1  1  1  1  1  1  1  1  1  1  1
      1  1  1  1  1  1  1  1  1  1  1  1  1  1  1  1  1  1  1  1  1  1  1  1  1  1  1  1  1  1  1
      1  1  1  1  1  1  1  1  1  1  1  1  1  1  1  1  1  1  1  1  1  1  1  1  1  1  1  1  1  1  1
      1  1  1  1  1  1  1  1  1  1  1  1  1  1  1  1  1  1  1  1  1  1  1  1  1  1  1  1  1  1  1
      1  1  1  1  1  1  1  1  1  1  1  1  1  1  1  1  1  1  1  1  1  1  1  1  1  1  1  1  1  1  1
      1  1  1  1  1  1  1  1  1  1  1  1  1  1  1  1  1  1  1  1  1  1  1  1  1  1  1  1  1  1  1
      1  1  1  1  1  1  1  1  1  1  1  1  1  1  1  1  1  1  1  1  1  1  1  1  1  1  1  1  1  1  1
      1  1  1  1  1  1  1  1  1  1  1  1  1  1  1  1  1  1  1  1  1  1  1  1  1  1  1  1  1  1  1
      1  1  1  1  1  1  1  1  1  1  1  1  1  1  1  1  1  1  1  1  1  1  1  1  1  1  1  1  1  1  1
      1  1  1  1  1  1  1  1  1  1  1  1  1  1  1  1  1  1  1  1  1  1  1  1  1  1  1  1  1  1  1
      1  1  1  1  1  1  1  1  1  1  1  1  1  1  1  1  1  1  1  1  1  1  1  1  1  1  1  1  1  1  1
      1  1  1  1  1  1  1  1  1  1  1  1  1  1  1  1  1  1  1  1  1  1  1  1  1  1  1  1  1  1  1
      1  1  1  1  1  1  1  1  1  1  1  1  1  1  1  1  1  1  1  1  1  1  1  1  1  1  1  1  1  1  1
      1  1  1  1  1  1  1  1  1  1  1  1  1  1  1  1  1  1  1  1  1  1  1  1  1  1  1  1  1  1  1
      1  1  1  1  1  1  1  1  1  1  1  1  1  1  1  1  1  1  1  1  1  1  1  1  1  1  1  1  1  1  1
      1  1  1  1  1  1  1  1  1  1  1  1  1  1  1  1  1  1  1  1  1  1  1  1  1  1  1  1  1  1  1
      1  1  1  1  1  1  1  1  1  1  1  1  1  1  1  1  1  1  1  1  1  1  1  1  1  1  1  1  1  1  1
      1  1  1  1  1  1  1  1  1  1  1  1  1  1  1  1  1  1  1  1  1  1  1  1  1  1  1  1  1  1  1
      1  1  1  1  1  1  1  1  1  1  1  1  1  1  1  1  1  1  1  1  1  1  1  1  1  1  1  1  1  1  1
      1  1  1  1  1  1  1  1  1  1  1  1  1  1  1  1  1  1  1  1  1  1  1  1  1  1  1  1  1  1  1
      1  1  1  1  1  1  1  1  1  1  1  1  1  1  1  1  1  1  1  1  1  1  1  1  1  1  1  1  1  1  1
      1  1  1  1  1  1  1  1  1  1  1  1  1  1  1  1  1  1  1  1  1  1  1  1  1  1  1  1  1  1  1
  ss  LAYERED
    CONSTANT  5.00000000E-06
    CONSTANT  1.00000000E-06
    CONSTANT  5.00000000E-07
  sy  LAYERED
    INTERNAL  FACTOR  1.0
           0.32360000       0.32360000       0.32360000       0.32360000       0.32360000       0.32360000       0.32360000       0.32360000       0.32360000       0.32360000       0.32360000       0.32360000       0.32360000       0.32360000       0.32360000       0.32360000       0.32360000       0.32360000       0.32360000       0.32360000       0.32360000       0.32360000       0.32360000       0.32360000       0.32360000       0.32360000       0.32360000       0.32360000       0.32360000       0.32360000       0.32360000
           0.32360000       0.32360000       0.32360000       0.32360000       0.32360000       0.32360000       0.32360000       0.32360000       0.32360000       0.32360000       0.32360000       0.32360000       0.32360000       0.32360000       0.32360000       0.32360000       0.32360000       0.32360000       0.32360000       0.32360000       0.32360000       0.32360000       0.32360000       0.32360000       0.32360000       0.32360000       0.32360000       0.32360000       0.32360000       0.32360000       0.32360000
           0.32360000       0.32360000       0.32360000       0.32360000       0.32360000       0.32360000       0.32360000       0.32360000       0.32360000       0.32360000       0.32360000       0.32360000       0.32360000       0.32360000       0.32360000       0.32360000       0.32360000       0.32360000       0.32360000       0.32360000       0.32360000       0.32360000       0.32360000       0.32360000       0.32360000       0.32360000       0.32360000       0.32360000       0.32360000       0.32360000       0.32360000
           0.32360000       0.32360000       0.32360000       0.32360000       0.32360000       0.32360000       0.32360000       0.32360000       0.32360000       0.32360000       0.32360000       0.32360000       0.32360000       0.32360000       0.32360000       0.32360000       0.32360000       0.32360000       0.32360000       0.32360000       0.32360000       0.32360000       0.32360000       0.32360000       0.32360000       0.32360000       0.32360000       0.32360000       0.32360000       0.32360000       0.32360000
           0.32360000       0.32360000       0.32360000       0.32360000       0.32360000       0.32360000       0.32360000       0.32360000       0.32360000       0.32360000       0.32360000       0.32360000       0.32360000       0.32360000       0.32360000       0.32360000       0.32360000       0.32360000       0.32360000       0.32360000       0.32360000       0.32360000       0.32360000       0.32360000       0.32360000       0.32360000       0.32360000       0.32360000       0.32360000       0.32360000       0.32360000
           0.32360000       0.32360000       0.32360000       0.32360000       0.32360000       0.32360000       0.32360000       0.32360000       0.32360000       0.32360000       0.32360000       0.32360000       0.32360000       0.32360000       0.32360000       0.32360000       0.32360000       0.32360000       0.32360000       0.32360000       0.32360000       0.32360000       0.32360000       0.32360000       0.32360000       0.32360000       0.32360000       0.32360000       0.32360000       0.32360000       0.32360000
           0.32360000       0.32360000       0.32360000       0.32360000       0.32360000       0.32360000       0.32360000       0.32360000       0.32360000       0.32360000       0.32360000       0.32360000       0.32360000       0.32360000       0.32360000       0.32360000       0.32360000       0.32360000       0.32360000       0.32360000       0.32360000       0.32360000       0.32360000       0.32360000       0.32360000       0.32360000       0.32360000       0.32360000       0.32360000       0.32360000       0.32360000
           0.32360000       0.32360000       0.32360000       0.32360000       0.32360000       0.32360000       0.32360000       0.32360000       0.32360000       0.32360000       0.32360000       0.32360000       0.32360000       0.32360000       0.32360000       0.32360000       0.32360000       0.32360000       0.32360000       0.32360000       0.32360000       0.32360000       0.32360000       0.32360000       0.32360000       0.32360000       0.32360000       0.32360000       0.32360000       0.32360000       0.32360000
           0.32360000       0.32360000       0.32360000       0.32360000       0.32360000       0.32360000       0.32360000       0.32360000       0.32360000       0.32360000       0.32360000       0.32360000       0.32360000       0.32360000       0.32360000       0.32360000       0.32360000       0.32360000       0.32360000       0.32360000       0.32360000       0.32360000       0.32360000       0.32360000       0.32360000       0.32360000       0.32360000       0.32360000       0.32360000       0.32360000       0.32360000
           0.32360000       0.32360000       0.32360000       0.32360000       0.32360000       0.32360000       0.32360000       0.32360000       0.32360000       0.32360000       0.32360000       0.32360000       0.32360000       0.32360000       0.32360000       0.32360000       0.32360000       0.32360000       0.32360000       0.32360000       0.32360000       0.32360000       0.32360000       0.32360000       0.32360000       0.32360000       0.32360000       0.32360000       0.32360000       0.32360000       0.32360000
           0.32360000       0.32360000       0.32360000       0.32360000       0.32360000       0.32360000       0.32360000       0.32360000       0.32360000       0.32360000       0.32360000       0.32360000       0.32360000       0.32360000       0.32360000       0.32360000       0.32360000       0.32360000       0.32360000       0.32360000       0.32360000       0.32360000       0.32360000       0.32360000       0.32360000       0.32360000       0.32360000       0.32360000       0.32360000       0.32360000       0.32360000
           0.32360000       0.32360000       0.32360000       0.32360000       0.32360000       0.32360000       0.32360000       0.32360000       0.32360000       0.32360000       0.32360000       0.32360000       0.32360000       0.32360000       0.32360000       0.32360000       0.32360000       0.32360000       0.32360000       0.32360000       0.32360000       0.32360000       0.32360000       0.32360000       0.32360000       0.32360000       0.32360000       0.32360000       0.32360000       0.32360000       0.32360000
           0.32360000       0.32360000       0.32360000       0.32360000       0.32360000       0.32360000       0.32360000       0.32360000       0.32360000       0.32360000       0.32360000       0.32360000       0.32360000       0.32360000       0.32360000       0.32360000       0.32360000       0.32360000       0.32360000       0.32360000       0.32360000       0.32360000       0.32360000       0.32360000       0.32360000       0.32360000       0.32360000       0.32360000       0.32360000       0.32360000       0.32360000
           0.32360000       0.32360000       0.32360000       0.32360000       0.32360000       0.32360000       0.32360000       0.32360000       0.32360000       0.32360000       0.32360000       0.32360000       0.32360000       0.32360000       0.32360000       0.32360000       0.32360000       0.32360000       0.32360000       0.32360000       0.32360000       0.32360000       0.32360000       0.32360000       0.32360000       0.32360000       0.32360000       0.32360000       0.32360000       0.32360000       0.32360000
           0.32360000       0.32360000       0.32360000       0.32360000       0.32360000       0.32360000       0.32360000       0.32360000       0.32360000       0.32360000       0.32360000       0.32360000       0.32360000       0.32360000       0.32360000       0.32360000       0.32360000       0.32360000       0.32360000       0.32360000       0.32360000       0.32360000       0.32360000       0.32360000       0.32360000       0.32360000       0.32360000       0.32360000       0.32360000       0.32360000       0.32360000
           0.32360000       0.32360000       0.32360000       0.32360000       0.32360000       0.32360000       0.32360000       0.32360000       0.32360000       0.32360000       0.32360000       0.32360000       0.32360000       0.32360000       0.32360000       0.32360000       0.32360000       0.32360000       0.32360000       0.32360000       0.32360000       0.32360000       0.32360000       0.32360000       0.32360000       0.32360000       0.32360000       0.32360000       0.32360000       0.32360000       0.32360000
           0.32360000       0.32360000       0.32360000       0.32360000       0.32360000       0.32360000       0.32360000       0.32360000       0.32360000       0.32360000       0.32360000       0.32360000       0.32360000       0.32360000       0.32360000       0.32360000       0.32360000       0.32360000       0.32360000       0.32360000       0.32360000       0.32360000       0.32360000       0.32360000       0.32360000       0.32360000       0.32360000       0.32360000       0.32360000       0.32360000       0.32360000
           0.32360000       0.32360000       0.32360000       0.32360000       0.32360000       0.32360000       0.32360000       0.32360000       0.32360000       0.32360000       0.32360000       0.32360000       0.32360000       0.32360000       0.32360000       0.32360000       0.32360000       0.32360000       0.32360000       0.32360000       0.32360000       0.32360000       0.32360000       0.32360000       0.32360000       0.32360000       0.32360000       0.32360000       0.32360000       0.32360000       0.32360000
           0.32360000       0.32360000       0.32360000       0.32360000       0.32360000       0.32360000       0.32360000       0.32360000       0.32360000       0.32360000       0.32360000       0.32360000       0.32360000       0.32360000       0.32360000       0.32360000       0.32360000       0.32360000       0.32360000       0.32360000       0.32360000       0.32360000       0.32360000       0.32360000       0.32360000       0.32360000       0.32360000       0.32360000       0.32360000       0.32360000       0.32360000
           0.32360000       0.32360000       0.32360000       0.32360000       0.32360000       0.32360000       0.32360000       0.32360000       0.32360000       0.32360000       0.32360000       0.32360000       0.32360000       0.32360000       0.32360000       0.32360000       0.32360000       0.32360000       0.32360000       0.32360000       0.32360000       0.32360000       0.32360000       0.32360000       0.32360000       0.32360000       0.32360000       0.32360000       0.32360000       0.32360000       0.32360000
           0.32360000       0.32360000       0.32360000       0.32360000       0.32360000       0.32360000       0.32360000       0.32360000       0.32360000       0.32360000       0.32360000       0.32360000       0.32360000       0.32360000       0.32360000       0.32360000       0.32360000       0.32360000       0.32360000       0.32360000       0.32360000       0.32360000       0.32360000       0.32360000       0.32360000       0.32360000       0.32360000       0.32360000       0.32360000       0.32360000       0.32360000
           0.32360000       0.32360000       0.32360000       0.32360000       0.32360000       0.32360000       0.32360000       0.32360000       0.32360000       0.32360000       0.32360000       0.32360000       0.32360000       0.32360000       0.32360000       0.32360000       0.32360000       0.32360000       0.32360000       0.32360000       0.32360000       0.32360000       0.32360000       0.32360000       0.32360000       0.32360000       0.32360000       0.32360000       0.32360000       0.32360000       0.32360000
           0.32360000       0.32360000       0.32360000       0.32360000       0.32360000       0.32360000       0.32360000       0.32360000       0.32360000       0.32360000       0.32360000       0.32360000       0.32360000       0.32360000       0.32360000       0.32360000       0.32360000       0.32360000       0.32360000       0.32360000       0.32360000       0.32360000       0.32360000       0.32360000       0.32360000       0.32360000       0.32360000       0.32360000       0.32360000       0.32360000       0.32360000
           0.32360000       0.32360000       0.32360000       0.32360000       0.32360000       0.32360000       0.32360000       0.32360000       0.32360000       0.32360000       0.32360000       0.32360000       0.32360000       0.32360000       0.32360000       0.32360000       0.32360000       0.32360000       0.32360000       0.32360000       0.32360000       0.32360000       0.32360000       0.32360000       0.32360000       0.32360000       0.32360000       0.32360000       0.32360000       0.32360000       0.32360000
           0.32360000       0.32360000       0.32360000       0.32360000       0.32360000       0.32360000       0.32360000       0.32360000       0.32360000       0.32360000       0.32360000       0.32360000       0.32360000       0.32360000       0.32360000       0.32360000       0.32360000       0.32360000       0.32360000       0.32360000       0.32360000       0.32360000       0.32360000       0.32360000       0.32360000       0.32360000       0.32360000       0.32360000       0.32360000       0.32360000       0.32360000
           0.32360000       0.32360000       0.32360000       0.32360000       0.32360000       0.32360000       0.32360000       0.32360000       0.32360000       0.32360000       0.32360000       0.32360000       0.32360000       0.32360000       0.32360000       0.32360000       0.32360000       0.32360000       0.32360000       0.32360000       0.32360000       0.32360000       0.32360000       0.32360000       0.32360000       0.32360000       0.32360000       0.32360000       0.32360000       0.32360000       0.32360000
           0.32360000       0.32360000       0.32360000       0.32360000       0.32360000       0.32360000       0.32360000       0.32360000       0.32360000       0.32360000       0.32360000       0.32360000       0.32360000       0.32360000       0.32360000       0.32360000       0.32360000       0.32360000       0.32360000       0.32360000       0.32360000       0.32360000       0.32360000       0.32360000       0.32360000       0.32360000       0.32360000       0.32360000       0.32360000       0.32360000       0.32360000
           0.32360000       0.32360000       0.32360000       0.32360000       0.32360000       0.32360000       0.32360000       0.32360000       0.32360000       0.32360000       0.32360000       0.32360000       0.32360000       0.32360000       0.32360000       0.32360000       0.32360000       0.32360000       0.32360000       0.32360000       0.32360000       0.32360000       0.32360000       0.32360000       0.32360000       0.32360000       0.32360000       0.32360000       0.32360000       0.32360000       0.32360000
           0.32360000       0.32360000       0.32360000       0.32360000       0.32360000       0.32360000       0.32360000       0.32360000       0.32360000       0.32360000       0.32360000       0.32360000       0.32360000       0.32360000       0.32360000       0.32360000       0.32360000       0.32360000       0.32360000       0.32360000       0.32360000       0.32360000       0.32360000       0.32360000       0.32360000       0.32360000       0.32360000       0.32360000       0.32360000       0.32360000       0.32360000
           0.32360000       0.32360000       0.32360000       0.32360000       0.32360000       0.32360000       0.32360000       0.32360000       0.32360000       0.32360000       0.32360000       0.32360000       0.32360000       0.32360000       0.32360000       0.32360000       0.32360000       0.32360000       0.32360000       0.32360000       0.32360000       0.32360000       0.32360000       0.32360000       0.32360000       0.32360000       0.32360000       0.32360000       0.32360000       0.32360000       0.32360000
           0.32360000       0.32360000       0.32360000       0.32360000       0.32360000       0.32360000       0.32360000       0.32360000       0.32360000       0.32360000       0.32360000       0.32360000       0.32360000       0.32360000       0.32360000       0.32360000       0.32360000       0.32360000       0.32360000       0.32360000       0.32360000       0.32360000       0.32360000       0.32360000       0.32360000       0.32360000       0.32360000       0.32360000       0.32360000       0.32360000       0.32360000
           0.32360000       0.32360000       0.32360000       0.32360000       0.32360000       0.32360000       0.32360000       0.32360000       0.32360000       0.32360000       0.32360000       0.32360000       0.32360000       0.32360000       0.32360000       0.32360000       0.32360000       0.32360000       0.32360000       0.32360000       0.32360000       0.32360000       0.32360000       0.32360000       0.32360000       0.32360000       0.32360000       0.32360000       0.32360000       0.32360000       0.32360000
           0.32360000       0.32360000       0.32360000       0.32360000       0.32360000       0.32360000       0.32360000       0.32360000       0.32360000       0.32360000       0.32360000       0.32360000       0.32360000       0.32360000       0.32360000       0.32360000       0.32360000       0.32360000       0.32360000       0.32360000       0.32360000       0.32360000       0.32360000       0.32360000       0.32360000       0.32360000       0.32360000       0.32360000       0.32360000       0.32360000       0.32360000
           0.32360000       0.32360000       0.32360000       0.32360000       0.32360000       0.32360000       0.32360000       0.32360000       0.32360000       0.32360000       0.32360000       0.32360000       0.32360000       0.32360000       0.32360000       0.32360000       0.32360000       0.32360000       0.32360000       0.32360000       0.32360000       0.32360000       0.32360000       0.32360000       0.32360000       0.32360000       0.32360000       0.32360000       0.32360000       0.32360000       0.32360000
           0.32360000       0.32360000       0.32360000       0.32360000       0.32360000       0.32360000       0.32360000       0.32360000       0.32360000       0.32360000       0.32360000       0.32360000       0.32360000       0.32360000       0.32360000       0.32360000       0.32360000       0.32360000       0.32360000       0.32360000       0.32360000       0.32360000       0.32360000       0.32360000       0.32360000       0.32360000       0.32360000       0.32360000       0.32360000       0.32360000       0.32360000