# File generated by Flopy version 3.3.5 on 03/25/2023 at 05:38:42.
BEGIN options
  BUDGET  FILEOUT  TLnewtest2sfb2.bud
  HEAD  FILEOUT  TLnewtest2sfb2.hds
  HEAD  PRINT_FORMAT  COLUMNS  10  WIDTH  15  DIGITS  6  GENERAL
END options

BEGIN period  1
  SAVE  HEAD  LAST
  SAVE  BUDGET  LAST
  PRINT  HEAD  LAST
  PRINT  BUDGET  LAST
END period  1

