# File generated by Flopy version 3.3.5 on 03/25/2023 at 05:41:10.
BEGIN options
  BUDGET  FILEOUT  TLnewtest2sfb2.mvr.bud
END options

BEGIN dimensions
  MAXMVR  1000000
  MAXPACKAGES  3
END dimensions

BEGIN packages
    UZF-1
    SFR-1
    DRN-1
END packages

BEGIN period  1
    UZF-1  1    SFR-1  10  FACTOR       1.00000000
    UZF-1  2    SFR-1  10  FACTOR       1.00000000
    DRN-1  2    SFR-1  10  FACTOR       1.00000000
    UZF-1  3    SFR-1  10  FACTOR       1.00000000
    DRN-1  3    SFR-1  10  FACTOR       1.00000000
    UZF-1  4    SFR-1  10  FACTOR       1.00000000
    DRN-1  4    SFR-1  10  FACTOR       1.00000000
    UZF-1  5    SFR-1  17  FACTOR       1.00000000
    DRN-1  5    SFR-1  17  FACTOR       1.00000000
    UZF-1  6    SFR-1  17  FACTOR       1.00000000
    DRN-1  6    SFR-1  17  FACTOR       1.00000000
    UZF-1  7    SFR-1  10  FACTOR       1.00000000
    DRN-1  7    SFR-1  10  FACTOR       1.00000000
    UZF-1  8    SFR-1  10  FACTOR       1.00000000
    DRN-1  8    SFR-1  10  FACTOR       1.00000000
    UZF-1  9    SFR-1  10  FACTOR       1.00000000
    DRN-1  9    SFR-1  10  FACTOR       1.00000000
    UZF-1  10    SFR-1  10  FACTOR       1.00000000
    DRN-1  10    SFR-1  10  FACTOR       1.00000000
    UZF-1  11    SFR-1  10  FACTOR       1.00000000
    DRN-1  11    SFR-1  10  FACTOR       1.00000000
    UZF-1  12    SFR-1  17  FACTOR       1.00000000
    DRN-1  12    SFR-1  17  FACTOR       1.00000000
    UZF-1  13    SFR-1  17  FACTOR       1.00000000
    DRN-1  13    SFR-1  17  FACTOR       1.00000000
    UZF-1  14    SFR-1  10  FACTOR       1.00000000
    DRN-1  14    SFR-1  10  FACTOR       1.00000000
    UZF-1  15    SFR-1  10  FACTOR       1.00000000
    DRN-1  15    SFR-1  10  FACTOR       1.00000000
    UZF-1  16    SFR-1  10  FACTOR       1.00000000
    DRN-1  16    SFR-1  10  FACTOR       1.00000000
    UZF-1  17    SFR-1  10  FACTOR       1.00000000
    DRN-1  17    SFR-1  10  FACTOR       1.00000000
    UZF-1  18    SFR-1  10  FACTOR       1.00000000
    DRN-1  18    SFR-1  10  FACTOR       1.00000000
    UZF-1  19    SFR-1  10  FACTOR       1.00000000
    DRN-1  19    SFR-1  10  FACTOR       1.00000000
    UZF-1  20    SFR-1  17  FACTOR       1.00000000
    DRN-1  20    SFR-1  17  FACTOR       1.00000000
    UZF-1  21    SFR-1  17  FACTOR       1.00000000
    DRN-1  21    SFR-1  17  FACTOR       1.00000000
    UZF-1  22    SFR-1  12  FACTOR       1.00000000
    DRN-1  22    SFR-1  12  FACTOR       1.00000000
    UZF-1  23    SFR-1  11  FACTOR       1.00000000
    DRN-1  23    SFR-1  11  FACTOR       1.00000000
    UZF-1  24    SFR-1  10  FACTOR       1.00000000
    DRN-1  24    SFR-1  10  FACTOR       1.00000000
    UZF-1  25    SFR-1  10  FACTOR       1.00000000
    DRN-1  25    SFR-1  10  FACTOR       1.00000000
    UZF-1  26    SFR-1  10  FACTOR       1.00000000
    DRN-1  26    SFR-1  10  FACTOR       1.00000000
    UZF-1  27    SFR-1  10  FACTOR       1.00000000
    DRN-1  27    SFR-1  10  FACTOR       1.00000000
    UZF-1  28    SFR-1  10  FACTOR       1.00000000
    DRN-1  28    SFR-1  10  FACTOR       1.00000000
    UZF-1  29    SFR-1  10  FACTOR       1.00000000
    DRN-1  29    SFR-1  10  FACTOR       1.00000000
    UZF-1  30    SFR-1  17  FACTOR       1.00000000
    DRN-1  30    SFR-1  17  FACTOR       1.00000000
    UZF-1  31    SFR-1  17  FACTOR       1.00000000
    DRN-1  31    SFR-1  17  FACTOR       1.00000000
    UZF-1  32    SFR-1  13  FACTOR       1.00000000
    DRN-1  32    SFR-1  13  FACTOR       1.00000000
    UZF-1  33    SFR-1  12  FACTOR       1.00000000
    DRN-1  33    SFR-1  12  FACTOR       1.00000000
    UZF-1  34    SFR-1  11  FACTOR       1.00000000
    DRN-1  34    SFR-1  11  FACTOR       1.00000000
    UZF-1  35    SFR-1  10  FACTOR       1.00000000
    DRN-1  35    SFR-1  10  FACTOR       1.00000000
    UZF-1  36    SFR-1  10  FACTOR       1.00000000
    DRN-1  36    SFR-1  10  FACTOR       1.00000000
    UZF-1  37    SFR-1  10  FACTOR       1.00000000
    DRN-1  37    SFR-1  10  FACTOR       1.00000000
    UZF-1  38    SFR-1  10  FACTOR       1.00000000
    DRN-1  38    SFR-1  10  FACTOR       1.00000000
    UZF-1  39    SFR-1  10  FACTOR       1.00000000
    DRN-1  39    SFR-1  10  FACTOR       1.00000000
    UZF-1  40    SFR-1  17  FACTOR       1.00000000
    DRN-1  40    SFR-1  17  FACTOR       1.00000000
    UZF-1  41    SFR-1  17  FACTOR       1.00000000
    DRN-1  41    SFR-1  17  FACTOR       1.00000000
    UZF-1  42    SFR-1  17  FACTOR       1.00000000
    DRN-1  42    SFR-1  17  FACTOR       1.00000000
    UZF-1  43    SFR-1  33  FACTOR       1.00000000
    DRN-1  43    SFR-1  33  FACTOR       1.00000000
    UZF-1  44    SFR-1  3  FACTOR       1.00000000
    DRN-1  44    SFR-1  3  FACTOR       1.00000000
    UZF-1  45    SFR-1  13  FACTOR       1.00000000
    DRN-1  45    SFR-1  13  FACTOR       1.00000000
    UZF-1  46    SFR-1  13  FACTOR       1.00000000
    DRN-1  46    SFR-1  13  FACTOR       1.00000000
    UZF-1  47    SFR-1  12  FACTOR       1.00000000
    DRN-1  47    SFR-1  12  FACTOR       1.00000000
    UZF-1  48    SFR-1  11  FACTOR       1.00000000
    DRN-1  48    SFR-1  11  FACTOR       1.00000000
    UZF-1  49    SFR-1  10  FACTOR       1.00000000
    DRN-1  49    SFR-1  10  FACTOR       1.00000000
    UZF-1  50    SFR-1  10  FACTOR       1.00000000
    DRN-1  50    SFR-1  10  FACTOR       1.00000000
    UZF-1  51    SFR-1  10  FACTOR       1.00000000
    DRN-1  51    SFR-1  10  FACTOR       1.00000000
    UZF-1  52    SFR-1  11  FACTOR       1.00000000
    DRN-1  52    SFR-1  11  FACTOR       1.00000000
    UZF-1  53    SFR-1  12  FACTOR       1.00000000
    DRN-1  53    SFR-1  12  FACTOR       1.00000000
    UZF-1  54    SFR-1  17  FACTOR       1.00000000
    DRN-1  54    SFR-1  17  FACTOR       1.00000000
    UZF-1  55    SFR-1  17  FACTOR       1.00000000
    DRN-1  55    SFR-1  17  FACTOR       1.00000000
    UZF-1  56    SFR-1  17  FACTOR       1.00000000
    DRN-1  56    SFR-1  17  FACTOR       1.00000000
    UZF-1  57    SFR-1  33  FACTOR       1.00000000
    DRN-1  57    SFR-1  33  FACTOR       1.00000000
    UZF-1  58    SFR-1  3  FACTOR       1.00000000
    DRN-1  58    SFR-1  3  FACTOR       1.00000000
    UZF-1  59    SFR-1  20  FACTOR       1.00000000
    DRN-1  59    SFR-1  20  FACTOR       1.00000000
    UZF-1  60    SFR-1  13  FACTOR       1.00000000
    DRN-1  60    SFR-1  13  FACTOR       1.00000000
    UZF-1  61    SFR-1  13  FACTOR       1.00000000
    DRN-1  61    SFR-1  13  FACTOR       1.00000000
    UZF-1  62    SFR-1  13  FACTOR       1.00000000
    DRN-1  62    SFR-1  13  FACTOR       1.00000000
    UZF-1  63    SFR-1  12  FACTOR       1.00000000
    DRN-1  63    SFR-1  12  FACTOR       1.00000000
    UZF-1  64    SFR-1  11  FACTOR       1.00000000
    DRN-1  64    SFR-1  11  FACTOR       1.00000000
    UZF-1  65    SFR-1  10  FACTOR       1.00000000
    UZF-1  66    SFR-1  11  FACTOR       1.00000000
    DRN-1  65    SFR-1  11  FACTOR       1.00000000
    UZF-1  67    SFR-1  12  FACTOR       1.00000000
    DRN-1  66    SFR-1  12  FACTOR       1.00000000
    UZF-1  68    SFR-1  14  FACTOR       1.00000000
    DRN-1  67    SFR-1  14  FACTOR       1.00000000
    UZF-1  69    SFR-1  17  FACTOR       1.00000000
    DRN-1  68    SFR-1  17  FACTOR       1.00000000
    UZF-1  70    SFR-1  17  FACTOR       1.00000000
    DRN-1  69    SFR-1  17  FACTOR       1.00000000
    UZF-1  71    SFR-1  17  FACTOR       1.00000000
    DRN-1  70    SFR-1  17  FACTOR       1.00000000
    UZF-1  72    SFR-1  17  FACTOR       1.00000000
    DRN-1  71    SFR-1  17  FACTOR       1.00000000
    UZF-1  73    SFR-1  33  FACTOR       1.00000000
    DRN-1  72    SFR-1  33  FACTOR       1.00000000
    UZF-1  74    SFR-1  33  FACTOR       1.00000000
    DRN-1  73    SFR-1  33  FACTOR       1.00000000
    UZF-1  75    SFR-1  3  FACTOR       1.00000000
    DRN-1  74    SFR-1  3  FACTOR       1.00000000
    UZF-1  76    SFR-1  6  FACTOR       1.00000000
    DRN-1  75    SFR-1  6  FACTOR       1.00000000
    UZF-1  77    SFR-1  20  FACTOR       1.00000000
    DRN-1  76    SFR-1  20  FACTOR       1.00000000
    UZF-1  78    SFR-1  13  FACTOR       1.00000000
    DRN-1  77    SFR-1  13  FACTOR       1.00000000
    UZF-1  79    SFR-1  13  FACTOR       1.00000000
    DRN-1  78    SFR-1  13  FACTOR       1.00000000
    UZF-1  80    SFR-1  13  FACTOR       1.00000000
    DRN-1  79    SFR-1  13  FACTOR       1.00000000
    UZF-1  81    SFR-1  12  FACTOR       1.00000000
    DRN-1  80    SFR-1  12  FACTOR       1.00000000
    UZF-1  82    SFR-1  11  FACTOR       1.00000000
    UZF-1  83    SFR-1  12  FACTOR       1.00000000
    DRN-1  81    SFR-1  12  FACTOR       1.00000000
    UZF-1  84    SFR-1  14  FACTOR       1.00000000
    DRN-1  82    SFR-1  14  FACTOR       1.00000000
    UZF-1  85    SFR-1  14  FACTOR       1.00000000
    DRN-1  83    SFR-1  14  FACTOR       1.00000000
    UZF-1  86    SFR-1  17  FACTOR       1.00000000
    DRN-1  84    SFR-1  17  FACTOR       1.00000000
    UZF-1  87    SFR-1  17  FACTOR       1.00000000
    DRN-1  85    SFR-1  17  FACTOR       1.00000000
    UZF-1  88    SFR-1  17  FACTOR       1.00000000
    DRN-1  86    SFR-1  17  FACTOR       1.00000000
    UZF-1  89    SFR-1  18  FACTOR       1.00000000
    DRN-1  87    SFR-1  18  FACTOR       1.00000000
    UZF-1  90    SFR-1  33  FACTOR       1.00000000
    DRN-1  88    SFR-1  33  FACTOR       1.00000000
    UZF-1  91    SFR-1  33  FACTOR       1.00000000
    DRN-1  89    SFR-1  33  FACTOR       1.00000000
    UZF-1  92    SFR-1  33  FACTOR       1.00000000
    DRN-1  90    SFR-1  33  FACTOR       1.00000000
    UZF-1  93    SFR-1  33  FACTOR       1.00000000
    DRN-1  91    SFR-1  33  FACTOR       1.00000000
    UZF-1  94    SFR-1  3  FACTOR       1.00000000
    DRN-1  92    SFR-1  3  FACTOR       1.00000000
    UZF-1  95    SFR-1  3  FACTOR       1.00000000
    DRN-1  93    SFR-1  3  FACTOR       1.00000000
    UZF-1  96    SFR-1  6  FACTOR       1.00000000
    DRN-1  94    SFR-1  6  FACTOR       1.00000000
    UZF-1  97    SFR-1  20  FACTOR       1.00000000
    DRN-1  95    SFR-1  20  FACTOR       1.00000000
    UZF-1  98    SFR-1  13  FACTOR       1.00000000
    DRN-1  96    SFR-1  13  FACTOR       1.00000000
    UZF-1  99    SFR-1  13  FACTOR       1.00000000
    DRN-1  97    SFR-1  13  FACTOR       1.00000000
    UZF-1  100    SFR-1  13  FACTOR       1.00000000
    DRN-1  98    SFR-1  13  FACTOR       1.00000000
    UZF-1  101    SFR-1  12  FACTOR       1.00000000
    UZF-1  102    SFR-1  14  FACTOR       1.00000000
    DRN-1  99    SFR-1  14  FACTOR       1.00000000
    UZF-1  103    SFR-1  14  FACTOR       1.00000000
    DRN-1  100    SFR-1  14  FACTOR       1.00000000
    UZF-1  104    SFR-1  15  FACTOR       1.00000000
    DRN-1  101    SFR-1  15  FACTOR       1.00000000
    UZF-1  105    SFR-1  17  FACTOR       1.00000000
    DRN-1  102    SFR-1  17  FACTOR       1.00000000
    UZF-1  106    SFR-1  17  FACTOR       1.00000000
    DRN-1  103    SFR-1  17  FACTOR       1.00000000
    UZF-1  107    SFR-1  18  FACTOR       1.00000000
    DRN-1  104    SFR-1  18  FACTOR       1.00000000
    UZF-1  108    SFR-1  19  FACTOR       1.00000000
    DRN-1  105    SFR-1  19  FACTOR       1.00000000
    UZF-1  109    SFR-1  33  FACTOR       1.00000000
    DRN-1  106    SFR-1  33  FACTOR       1.00000000
    UZF-1  110    SFR-1  33  FACTOR       1.00000000
    DRN-1  107    SFR-1  33  FACTOR       1.00000000
    UZF-1  111    SFR-1  33  FACTOR       1.00000000
    DRN-1  108    SFR-1  33  FACTOR       1.00000000
    UZF-1  112    SFR-1  33  FACTOR       1.00000000
    DRN-1  109    SFR-1  33  FACTOR       1.00000000
    UZF-1  113    SFR-1  33  FACTOR       1.00000000
    DRN-1  110    SFR-1  33  FACTOR       1.00000000
    UZF-1  114    SFR-1  1  FACTOR       1.00000000
    DRN-1  111    SFR-1  1  FACTOR       1.00000000
    UZF-1  115    SFR-1  2  FACTOR       1.00000000
    DRN-1  112    SFR-1  2  FACTOR       1.00000000
    UZF-1  116    SFR-1  3  FACTOR       1.00000000
    DRN-1  113    SFR-1  3  FACTOR       1.00000000
    UZF-1  117    SFR-1  3  FACTOR       1.00000000
    DRN-1  114    SFR-1  3  FACTOR       1.00000000
    UZF-1  118    SFR-1  6  FACTOR       1.00000000
    DRN-1  115    SFR-1  6  FACTOR       1.00000000
    UZF-1  119    SFR-1  20  FACTOR       1.00000000
    DRN-1  116    SFR-1  20  FACTOR       1.00000000
    UZF-1  120    SFR-1  13  FACTOR       1.00000000
    DRN-1  117    SFR-1  13  FACTOR       1.00000000
    UZF-1  121    SFR-1  13  FACTOR       1.00000000
    DRN-1  118    SFR-1  13  FACTOR       1.00000000
    UZF-1  122    SFR-1  13  FACTOR       1.00000000
    UZF-1  123    SFR-1  14  FACTOR       1.00000000
    UZF-1  124    SFR-1  15  FACTOR       1.00000000
    DRN-1  119    SFR-1  15  FACTOR       1.00000000
    UZF-1  125    SFR-1  17  FACTOR       1.00000000
    DRN-1  120    SFR-1  17  FACTOR       1.00000000
    UZF-1  126    SFR-1  17  FACTOR       1.00000000
    DRN-1  121    SFR-1  17  FACTOR       1.00000000
    UZF-1  127    SFR-1  18  FACTOR       1.00000000
    DRN-1  122    SFR-1  18  FACTOR       1.00000000
    UZF-1  128    SFR-1  19  FACTOR       1.00000000
    DRN-1  123    SFR-1  19  FACTOR       1.00000000
    UZF-1  129    SFR-1  33  FACTOR       1.00000000
    DRN-1  124    SFR-1  33  FACTOR       1.00000000
    UZF-1  130    SFR-1  33  FACTOR       1.00000000
    DRN-1  125    SFR-1  33  FACTOR       1.00000000
    UZF-1  131    SFR-1  33  FACTOR       1.00000000
    DRN-1  126    SFR-1  33  FACTOR       1.00000000
    UZF-1  132    SFR-1  33  FACTOR       1.00000000
    DRN-1  127    SFR-1  33  FACTOR       1.00000000
    UZF-1  133    SFR-1  33  FACTOR       1.00000000
    DRN-1  128    SFR-1  33  FACTOR       1.00000000
    UZF-1  134    SFR-1  33  FACTOR       1.00000000
    DRN-1  129    SFR-1  33  FACTOR       1.00000000
    UZF-1  135    SFR-1  1  FACTOR       1.00000000
    DRN-1  130    SFR-1  1  FACTOR       1.00000000
    UZF-1  136    SFR-1  1  FACTOR       1.00000000
    DRN-1  131    SFR-1  1  FACTOR       1.00000000
    UZF-1  137    SFR-1  1  FACTOR       1.00000000
    DRN-1  132    SFR-1  1  FACTOR       1.00000000
    UZF-1  138    SFR-1  2  FACTOR       1.00000000
    DRN-1  133    SFR-1  2  FACTOR       1.00000000
    UZF-1  139    SFR-1  3  FACTOR       1.00000000
    DRN-1  134    SFR-1  3  FACTOR       1.00000000
    UZF-1  140    SFR-1  3  FACTOR       1.00000000
    DRN-1  135    SFR-1  3  FACTOR       1.00000000
    UZF-1  141    SFR-1  6  FACTOR       1.00000000
    DRN-1  136    SFR-1  6  FACTOR       1.00000000
    UZF-1  142    SFR-1  20  FACTOR       1.00000000
    DRN-1  137    SFR-1  20  FACTOR       1.00000000
    UZF-1  143    SFR-1  13  FACTOR       1.00000000
    DRN-1  138    SFR-1  13  FACTOR       1.00000000
    UZF-1  144    SFR-1  16  FACTOR       1.00000000
    DRN-1  139    SFR-1  16  FACTOR       1.00000000
    UZF-1  145    SFR-1  15  FACTOR       1.00000000
    UZF-1  146    SFR-1  17  FACTOR       1.00000000
    DRN-1  140    SFR-1  17  FACTOR       1.00000000
    UZF-1  147    SFR-1  17  FACTOR       1.00000000
    DRN-1  141    SFR-1  17  FACTOR       1.00000000
    UZF-1  148    SFR-1  18  FACTOR       1.00000000
    DRN-1  142    SFR-1  18  FACTOR       1.00000000
    UZF-1  149    SFR-1  19  FACTOR       1.00000000
    DRN-1  143    SFR-1  19  FACTOR       1.00000000
    UZF-1  150    SFR-1  20  FACTOR       1.00000000
    DRN-1  144    SFR-1  20  FACTOR       1.00000000
    UZF-1  151    SFR-1  33  FACTOR       1.00000000
    DRN-1  145    SFR-1  33  FACTOR       1.00000000
    UZF-1  152    SFR-1  33  FACTOR       1.00000000
    DRN-1  146    SFR-1  33  FACTOR       1.00000000
    UZF-1  153    SFR-1  33  FACTOR       1.00000000
    DRN-1  147    SFR-1  33  FACTOR       1.00000000
    UZF-1  154    SFR-1  33  FACTOR       1.00000000
    DRN-1  148    SFR-1  33  FACTOR       1.00000000
    UZF-1  155    SFR-1  33  FACTOR       1.00000000
    DRN-1  149    SFR-1  33  FACTOR       1.00000000
    UZF-1  156    SFR-1  33  FACTOR       1.00000000
    DRN-1  150    SFR-1  33  FACTOR       1.00000000
    UZF-1  157    SFR-1  45  FACTOR       1.00000000
    DRN-1  151    SFR-1  45  FACTOR       1.00000000
    UZF-1  158    SFR-1  2  FACTOR       1.00000000
    DRN-1  152    SFR-1  2  FACTOR       1.00000000
    UZF-1  159    SFR-1  1  FACTOR       1.00000000
    DRN-1  153    SFR-1  1  FACTOR       1.00000000
    UZF-1  160    SFR-1  1  FACTOR       1.00000000
    DRN-1  154    SFR-1  1  FACTOR       1.00000000
    UZF-1  161    SFR-1  1  FACTOR       1.00000000
    DRN-1  155    SFR-1  1  FACTOR       1.00000000
    UZF-1  162    SFR-1  2  FACTOR       1.00000000
    DRN-1  156    SFR-1  2  FACTOR       1.00000000
    UZF-1  163    SFR-1  3  FACTOR       1.00000000
    DRN-1  157    SFR-1  3  FACTOR       1.00000000
    UZF-1  164    SFR-1  3  FACTOR       1.00000000
    DRN-1  158    SFR-1  3  FACTOR       1.00000000
    UZF-1  165    SFR-1  6  FACTOR       1.00000000
    DRN-1  159    SFR-1  6  FACTOR       1.00000000
    UZF-1  166    SFR-1  20  FACTOR       1.00000000
    DRN-1  160    SFR-1  20  FACTOR       1.00000000
    UZF-1  167    SFR-1  16  FACTOR       1.00000000
    DRN-1  161    SFR-1  16  FACTOR       1.00000000
    UZF-1  168    SFR-1  16  FACTOR       1.00000000
    UZF-1  169    SFR-1  17  FACTOR       1.00000000
    UZF-1  170    SFR-1  18  FACTOR       1.00000000
    DRN-1  162    SFR-1  18  FACTOR       1.00000000
    UZF-1  171    SFR-1  19  FACTOR       1.00000000
    DRN-1  163    SFR-1  19  FACTOR       1.00000000
    UZF-1  172    SFR-1  20  FACTOR       1.00000000
    DRN-1  164    SFR-1  20  FACTOR       1.00000000
    UZF-1  173    SFR-1  36  FACTOR       1.00000000
    DRN-1  165    SFR-1  36  FACTOR       1.00000000
    UZF-1  174    SFR-1  33  FACTOR       1.00000000
    DRN-1  166    SFR-1  33  FACTOR       1.00000000
    UZF-1  175    SFR-1  33  FACTOR       1.00000000
    DRN-1  167    SFR-1  33  FACTOR       1.00000000
    UZF-1  176    SFR-1  33  FACTOR       1.00000000
    DRN-1  168    SFR-1  33  FACTOR       1.00000000
    UZF-1  177    SFR-1  33  FACTOR       1.00000000
    DRN-1  169    SFR-1  33  FACTOR       1.00000000
    UZF-1  178    SFR-1  33  FACTOR       1.00000000
    DRN-1  170    SFR-1  33  FACTOR       1.00000000
    UZF-1  179    SFR-1  34  FACTOR       1.00000000
    DRN-1  171    SFR-1  34  FACTOR       1.00000000
    UZF-1  180    SFR-1  45  FACTOR       1.00000000
    DRN-1  172    SFR-1  45  FACTOR       1.00000000
    UZF-1  181    SFR-1  2  FACTOR       1.00000000
    DRN-1  173    SFR-1  2  FACTOR       1.00000000
    UZF-1  182    SFR-1  2  FACTOR       1.00000000
    DRN-1  174    SFR-1  2  FACTOR       1.00000000
    UZF-1  183    SFR-1  1  FACTOR       1.00000000
    DRN-1  175    SFR-1  1  FACTOR       1.00000000
    UZF-1  184    SFR-1  1  FACTOR       1.00000000
    DRN-1  176    SFR-1  1  FACTOR       1.00000000
    UZF-1  185    SFR-1  1  FACTOR       1.00000000
    DRN-1  177    SFR-1  1  FACTOR       1.00000000
    UZF-1  186    SFR-1  2  FACTOR       1.00000000
    DRN-1  178    SFR-1  2  FACTOR       1.00000000
    UZF-1  187    SFR-1  3  FACTOR       1.00000000
    DRN-1  179    SFR-1  3  FACTOR       1.00000000
    UZF-1  188    SFR-1  3  FACTOR       1.00000000
    DRN-1  180    SFR-1  3  FACTOR       1.00000000
    UZF-1  189    SFR-1  6  FACTOR       1.00000000
    DRN-1  181    SFR-1  6  FACTOR       1.00000000
    UZF-1  190    SFR-1  20  FACTOR       1.00000000
    DRN-1  182    SFR-1  20  FACTOR       1.00000000
    UZF-1  191    SFR-1  19  FACTOR       1.00000000
    DRN-1  183    SFR-1  19  FACTOR       1.00000000
    UZF-1  192    SFR-1  18  FACTOR       1.00000000
    UZF-1  193    SFR-1  19  FACTOR       1.00000000
    DRN-1  184    SFR-1  19  FACTOR       1.00000000
    UZF-1  194    SFR-1  20  FACTOR       1.00000000
    DRN-1  185    SFR-1  20  FACTOR       1.00000000
    UZF-1  195    SFR-1  36  FACTOR       1.00000000
    DRN-1  186    SFR-1  36  FACTOR       1.00000000
    UZF-1  196    SFR-1  32  FACTOR       1.00000000
    DRN-1  187    SFR-1  32  FACTOR       1.00000000
    UZF-1  197    SFR-1  32  FACTOR       1.00000000
    DRN-1  188    SFR-1  32  FACTOR       1.00000000
    UZF-1  198    SFR-1  33  FACTOR       1.00000000
    DRN-1  189    SFR-1  33  FACTOR       1.00000000
    UZF-1  199    SFR-1  33  FACTOR       1.00000000
    DRN-1  190    SFR-1  33  FACTOR       1.00000000
    UZF-1  200    SFR-1  33  FACTOR       1.00000000
    DRN-1  191    SFR-1  33  FACTOR       1.00000000
    UZF-1  201    SFR-1  34  FACTOR       1.00000000
    DRN-1  192    SFR-1  34  FACTOR       1.00000000
    UZF-1  202    SFR-1  35  FACTOR       1.00000000
    DRN-1  193    SFR-1  35  FACTOR       1.00000000
    UZF-1  203    SFR-1  35  FACTOR       1.00000000
    DRN-1  194    SFR-1  35  FACTOR       1.00000000
    UZF-1  204    SFR-1  45  FACTOR       1.00000000
    DRN-1  195    SFR-1  45  FACTOR       1.00000000
    UZF-1  205    SFR-1  30  FACTOR       1.00000000
    DRN-1  196    SFR-1  30  FACTOR       1.00000000
    UZF-1  206    SFR-1  2  FACTOR       1.00000000
    DRN-1  197    SFR-1  2  FACTOR       1.00000000
    UZF-1  207    SFR-1  2  FACTOR       1.00000000
    DRN-1  198    SFR-1  2  FACTOR       1.00000000
    UZF-1  208    SFR-1  1  FACTOR       1.00000000
    DRN-1  199    SFR-1  1  FACTOR       1.00000000
    UZF-1  209    SFR-1  1  FACTOR       1.00000000
    DRN-1  200    SFR-1  1  FACTOR       1.00000000
    UZF-1  210    SFR-1  1  FACTOR       1.00000000
    UZF-1  211    SFR-1  2  FACTOR       1.00000000
    UZF-1  212    SFR-1  3  FACTOR       1.00000000
    UZF-1  213    SFR-1  6  FACTOR       1.00000000
    DRN-1  201    SFR-1  6  FACTOR       1.00000000
    UZF-1  214    SFR-1  6  FACTOR       1.00000000
    DRN-1  202    SFR-1  6  FACTOR       1.00000000
    UZF-1  215    SFR-1  20  FACTOR       1.00000000
    DRN-1  203    SFR-1  20  FACTOR       1.00000000
    UZF-1  216    SFR-1  19  FACTOR       1.00000000
    UZF-1  217    SFR-1  20  FACTOR       1.00000000
    DRN-1  204    SFR-1  20  FACTOR       1.00000000
    UZF-1  218    SFR-1  36  FACTOR       1.00000000
    DRN-1  205    SFR-1  36  FACTOR       1.00000000
    UZF-1  219    SFR-1  36  FACTOR       1.00000000
    DRN-1  206    SFR-1  36  FACTOR       1.00000000
    UZF-1  220    SFR-1  32  FACTOR       1.00000000
    DRN-1  207    SFR-1  32  FACTOR       1.00000000
    UZF-1  221    SFR-1  32  FACTOR       1.00000000
    DRN-1  208    SFR-1  32  FACTOR       1.00000000
    UZF-1  222    SFR-1  32  FACTOR       1.00000000
    DRN-1  209    SFR-1  32  FACTOR       1.00000000
    UZF-1  223    SFR-1  33  FACTOR       1.00000000
    DRN-1  210    SFR-1  33  FACTOR       1.00000000
    UZF-1  224    SFR-1  34  FACTOR       1.00000000
    DRN-1  211    SFR-1  34  FACTOR       1.00000000
    UZF-1  225    SFR-1  35  FACTOR       1.00000000
    DRN-1  212    SFR-1  35  FACTOR       1.00000000
    UZF-1  226    SFR-1  35  FACTOR       1.00000000
    DRN-1  213    SFR-1  35  FACTOR       1.00000000
    UZF-1  227    SFR-1  45  FACTOR       1.00000000
    DRN-1  214    SFR-1  45  FACTOR       1.00000000
    UZF-1  228    SFR-1  48  FACTOR       1.00000000
    DRN-1  215    SFR-1  48  FACTOR       1.00000000
    UZF-1  229    SFR-1  30  FACTOR       1.00000000
    DRN-1  216    SFR-1  30  FACTOR       1.00000000
    UZF-1  230    SFR-1  30  FACTOR       1.00000000
    DRN-1  217    SFR-1  30  FACTOR       1.00000000
    UZF-1  231    SFR-1  2  FACTOR       1.00000000
    DRN-1  218    SFR-1  2  FACTOR       1.00000000
    UZF-1  232    SFR-1  2  FACTOR       1.00000000
    DRN-1  219    SFR-1  2  FACTOR       1.00000000
    UZF-1  233    SFR-1  1  FACTOR       1.00000000
    DRN-1  220    SFR-1  1  FACTOR       1.00000000
    UZF-1  234    SFR-1  2  FACTOR       1.00000000
    DRN-1  221    SFR-1  2  FACTOR       1.00000000
    UZF-1  235    SFR-1  4  FACTOR       1.00000000
    DRN-1  222    SFR-1  4  FACTOR       1.00000000
    UZF-1  236    SFR-1  4  FACTOR       1.00000000
    UZF-1  237    SFR-1  5  FACTOR       1.00000000
    UZF-1  238    SFR-1  6  FACTOR       1.00000000
    UZF-1  239    SFR-1  22  FACTOR       1.00000000
    DRN-1  223    SFR-1  22  FACTOR       1.00000000
    UZF-1  240    SFR-1  20  FACTOR       1.00000000
    UZF-1  241    SFR-1  36  FACTOR       1.00000000
    DRN-1  224    SFR-1  36  FACTOR       1.00000000
    UZF-1  242    SFR-1  36  FACTOR       1.00000000
    DRN-1  225    SFR-1  36  FACTOR       1.00000000
    UZF-1  243    SFR-1  36  FACTOR       1.00000000
    DRN-1  226    SFR-1  36  FACTOR       1.00000000
    UZF-1  244    SFR-1  33  FACTOR       1.00000000
    DRN-1  227    SFR-1  33  FACTOR       1.00000000
    UZF-1  245    SFR-1  32  FACTOR       1.00000000
    UZF-1  246    SFR-1  33  FACTOR       1.00000000
    DRN-1  228    SFR-1  33  FACTOR       1.00000000
    UZF-1  247    SFR-1  34  FACTOR       1.00000000
    DRN-1  229    SFR-1  34  FACTOR       1.00000000
    UZF-1  248    SFR-1  35  FACTOR       1.00000000
    DRN-1  230    SFR-1  35  FACTOR       1.00000000
    UZF-1  249    SFR-1  35  FACTOR       1.00000000
    DRN-1  231    SFR-1  35  FACTOR       1.00000000
    UZF-1  250    SFR-1  45  FACTOR       1.00000000
    DRN-1  232    SFR-1  45  FACTOR       1.00000000
    UZF-1  251    SFR-1  48  FACTOR       1.00000000
    DRN-1  233    SFR-1  48  FACTOR       1.00000000
    UZF-1  252    SFR-1  48  FACTOR       1.00000000
    DRN-1  234    SFR-1  48  FACTOR       1.00000000
    UZF-1  253    SFR-1  30  FACTOR       1.00000000
    DRN-1  235    SFR-1  30  FACTOR       1.00000000
    UZF-1  254    SFR-1  30  FACTOR       1.00000000
    DRN-1  236    SFR-1  30  FACTOR       1.00000000
    UZF-1  255    SFR-1  2  FACTOR       1.00000000
    DRN-1  237    SFR-1  2  FACTOR       1.00000000
    UZF-1  256    SFR-1  2  FACTOR       1.00000000
    DRN-1  238    SFR-1  2  FACTOR       1.00000000
    UZF-1  257    SFR-1  4  FACTOR       1.00000000
    DRN-1  239    SFR-1  4  FACTOR       1.00000000
    UZF-1  258    SFR-1  4  FACTOR       1.00000000
    DRN-1  240    SFR-1  4  FACTOR       1.00000000
    UZF-1  259    SFR-1  5  FACTOR       1.00000000
    DRN-1  241    SFR-1  5  FACTOR       1.00000000
    UZF-1  260    SFR-1  6  FACTOR       1.00000000
    DRN-1  242    SFR-1  6  FACTOR       1.00000000
    UZF-1  261    SFR-1  7  FACTOR       1.00000000
    UZF-1  262    SFR-1  8  FACTOR       1.00000000
    UZF-1  263    SFR-1  22  FACTOR       1.00000000
    UZF-1  264    SFR-1  24  FACTOR       1.00000000
    DRN-1  243    SFR-1  24  FACTOR       1.00000000
    UZF-1  265    SFR-1  36  FACTOR       1.00000000
    DRN-1  244    SFR-1  36  FACTOR       1.00000000
    UZF-1  266    SFR-1  36  FACTOR       1.00000000
    DRN-1  245    SFR-1  36  FACTOR       1.00000000
    UZF-1  267    SFR-1  34  FACTOR       1.00000000
    DRN-1  246    SFR-1  34  FACTOR       1.00000000
    UZF-1  268    SFR-1  33  FACTOR       1.00000000
    UZF-1  269    SFR-1  34  FACTOR       1.00000000
    DRN-1  247    SFR-1  34  FACTOR       1.00000000
    UZF-1  270    SFR-1  35  FACTOR       1.00000000
    DRN-1  248    SFR-1  35  FACTOR       1.00000000
    UZF-1  271    SFR-1  35  FACTOR       1.00000000
    DRN-1  249    SFR-1  35  FACTOR       1.00000000
    UZF-1  272    SFR-1  45  FACTOR       1.00000000
    DRN-1  250    SFR-1  45  FACTOR       1.00000000
    UZF-1  273    SFR-1  48  FACTOR       1.00000000
    DRN-1  251    SFR-1  48  FACTOR       1.00000000
    UZF-1  274    SFR-1  48  FACTOR       1.00000000
    DRN-1  252    SFR-1  48  FACTOR       1.00000000
    UZF-1  275    SFR-1  48  FACTOR       1.00000000
    DRN-1  253    SFR-1  48  FACTOR       1.00000000
    UZF-1  276    SFR-1  30  FACTOR       1.00000000
    DRN-1  254    SFR-1  30  FACTOR       1.00000000
    UZF-1  277    SFR-1  30  FACTOR       1.00000000
    DRN-1  255    SFR-1  30  FACTOR       1.00000000
    UZF-1  278    SFR-1  30  FACTOR       1.00000000
    DRN-1  256    SFR-1  30  FACTOR       1.00000000
    UZF-1  279    SFR-1  4  FACTOR       1.00000000
    DRN-1  257    SFR-1  4  FACTOR       1.00000000
    UZF-1  280    SFR-1  4  FACTOR       1.00000000
    DRN-1  258    SFR-1  4  FACTOR       1.00000000
    UZF-1  281    SFR-1  5  FACTOR       1.00000000
    DRN-1  259    SFR-1  5  FACTOR       1.00000000
    UZF-1  282    SFR-1  6  FACTOR       1.00000000
    DRN-1  260    SFR-1  6  FACTOR       1.00000000
    UZF-1  283    SFR-1  7  FACTOR       1.00000000
    DRN-1  261    SFR-1  7  FACTOR       1.00000000
    UZF-1  284    SFR-1  8  FACTOR       1.00000000
    DRN-1  262    SFR-1  8  FACTOR       1.00000000
    UZF-1  285    SFR-1  23  FACTOR       1.00000000
    DRN-1  263    SFR-1  23  FACTOR       1.00000000
    UZF-1  286    SFR-1  23  FACTOR       1.00000000
    UZF-1  287    SFR-1  24  FACTOR       1.00000000
    UZF-1  288    SFR-1  26  FACTOR       1.00000000
    DRN-1  264    SFR-1  26  FACTOR       1.00000000
    UZF-1  289    SFR-1  36  FACTOR       1.00000000
    DRN-1  265    SFR-1  36  FACTOR       1.00000000
    UZF-1  290    SFR-1  36  FACTOR       1.00000000
    DRN-1  266    SFR-1  36  FACTOR       1.00000000
    UZF-1  291    SFR-1  34  FACTOR       1.00000000
    UZF-1  292    SFR-1  35  FACTOR       1.00000000
    DRN-1  267    SFR-1  35  FACTOR       1.00000000
    UZF-1  293    SFR-1  35  FACTOR       1.00000000
    DRN-1  268    SFR-1  35  FACTOR       1.00000000
    UZF-1  294    SFR-1  45  FACTOR       1.00000000
    DRN-1  269    SFR-1  45  FACTOR       1.00000000
    UZF-1  295    SFR-1  48  FACTOR       1.00000000
    DRN-1  270    SFR-1  48  FACTOR       1.00000000
    UZF-1  296    SFR-1  48  FACTOR       1.00000000
    DRN-1  271    SFR-1  48  FACTOR       1.00000000
    UZF-1  297    SFR-1  48  FACTOR       1.00000000