# File generated by Flopy version 3.3.5 on 03/25/2023 at 05:38:42.
BEGIN options
END options

BEGIN dimensions
  NLAY  3
  NROW  37
  NCOL  31
END dimensions

BEGIN griddata
  delr
    CONSTANT       5.00000000
  delc
    CONSTANT       5.00000000
  top
    INTERNAL  FACTOR  1.0
         0.00000000       0.00000000       0.00000000       0.00000000       0.00000000       0.00000000       0.00000000       0.00000000    1652.80505371       0.00000000       0.00000000       0.00000000       0.00000000       0.00000000       0.00000000       0.00000000       0.00000000       0.00000000       0.00000000       0.00000000       0.00000000       0.00000000       0.00000000       0.00000000       0.00000000       0.00000000       0.00000000       0.00000000       0.00000000       0.00000000       0.00000000
         0.00000000       0.00000000       0.00000000       0.00000000       0.00000000       0.00000000       0.00000000    1652.64404297    1652.31408691    1652.04406738    1651.37500000    1650.24670410       0.00000000       0.00000000       0.00000000       0.00000000       0.00000000       0.00000000       0.00000000       0.00000000       0.00000000       0.00000000       0.00000000       0.00000000       0.00000000       0.00000000       0.00000000       0.00000000       0.00000000       0.00000000       0.00000000
         0.00000000       0.00000000       0.00000000       0.00000000       0.00000000       0.00000000    1651.36328125    1651.44995117    1651.50598145    1651.21997070    1650.59997559    1649.66796875    1648.60205078       0.00000000       0.00000000       0.00000000       0.00000000       0.00000000       0.00000000       0.00000000       0.00000000       0.00000000       0.00000000       0.00000000       0.00000000       0.00000000       0.00000000       0.00000000       0.00000000       0.00000000       0.00000000
         0.00000000       0.00000000       0.00000000       0.00000000       0.00000000       0.00000000    1650.32202148    1650.20666504    1650.19995117    1649.60998535    1649.03796387    1648.45996094    1647.60827637    1647.09997559       0.00000000       0.00000000       0.00000000       0.00000000       0.00000000       0.00000000       0.00000000       0.00000000       0.00000000       0.00000000       0.00000000       0.00000000       0.00000000       0.00000000       0.00000000       0.00000000       0.00000000
         0.00000000       0.00000000       0.00000000       0.00000000       0.00000000    1649.04333496    1649.32666016    1648.90002441    1648.43408203    1647.30749512    1646.89001465    1646.61145020    1646.49499512    1646.36499023    1646.09594727       0.00000000       0.00000000       0.00000000       0.00000000       0.00000000       0.00000000       0.00000000       0.00000000       0.00000000       0.00000000       0.00000000       0.00000000       0.00000000       0.00000000       0.00000000       0.00000000
         0.00000000       0.00000000       0.00000000       0.00000000       0.00000000    1647.98718262    1647.95581055    1647.54003906    1646.67175293    1645.38403320    1644.60168457    1644.37744141    1644.58496094    1644.86328125    1644.56323242    1644.24499512    1643.58251953       0.00000000       0.00000000       0.00000000       0.00000000       0.00000000       0.00000000       0.00000000       0.00000000       0.00000000       0.00000000       0.00000000       0.00000000       0.00000000       0.00000000
         0.00000000       0.00000000       0.00000000       0.00000000    1646.74108887    1646.80712891    1646.54199219    1645.97119141    1645.05749512    1643.40197754    1642.47595215    1641.99279785    1642.58996582    1642.80004883    1642.57995605    1642.52001953    1642.03857422    1641.73498535       0.00000000       0.00000000       0.00000000       0.00000000       0.00000000       0.00000000       0.00000000       0.00000000       0.00000000       0.00000000       0.00000000       0.00000000       0.00000000
         0.00000000       0.00000000       0.00000000    1645.55004883    1645.69702148    1645.59448242    1645.25000000    1644.46862793    1643.27832031    1641.76831055    1640.30798340    1639.50744629    1640.10595703    1640.43005371    1640.40502930    1640.23754883    1640.25329590    1640.21997070    1640.03869629    1639.16418457       0.00000000       0.00000000       0.00000000       0.00000000       0.00000000       0.00000000       0.00000000       0.00000000       0.00000000       0.00000000       0.00000000
         0.00000000       0.00000000       0.00000000    1644.54003906    1644.64282227    1644.32128906    1643.79187012    1642.60583496    1641.33251953    1639.70593262    1638.09497070    1636.62597656    1637.28417969    1637.58862305    1637.55505371    1637.63830566    1637.97253418    1638.24755859    1638.23498535    1637.47497559    1636.80322266    1636.27832031       0.00000000       0.00000000       0.00000000       0.00000000       0.00000000       0.00000000       0.00000000       0.00000000       0.00000000
         0.00000000       0.00000000       0.00000000    1643.78247070    1643.49670410    1643.05004883    1642.27221680    1641.08496094    1639.72778320    1638.07434082    1636.17797852    1634.43579102    1635.12402344    1635.37170410    1635.23376465    1635.31323242    1636.28723145    1636.68505859    1636.39001465    1636.06579590    1635.57666016    1635.43994141    1634.99255371       0.00000000       0.00000000       0.00000000       0.00000000       0.00000000       0.00000000       0.00000000       0.00000000
         0.00000000       0.00000000    1643.07495117    1642.94287109    1642.23828125    1641.28271484    1640.29895020    1639.01599121    1637.92224121    1636.44140625    1634.62878418    1632.97827148    1632.74719238    1633.10998535    1633.21997070    1633.72497559    1634.43005371    1634.83996582    1634.57666016    1634.39331055    1633.78002930    1634.30126953    1634.22998047       0.00000000       0.00000000       0.00000000       0.00000000       0.00000000       0.00000000       0.00000000       0.00000000
         0.00000000    1642.55712891    1642.59497070    1642.06994629    1641.00573730    1639.69494629    1638.43249512    1636.89404297    1635.96435547    1634.68408203    1633.25744629    1631.86828613    1630.41503906    1630.78857422    1631.05749512    1632.21997070    1632.83996582    1632.82495117    1632.50000000    1632.08325195    1631.98120117    1632.74426270    1633.40283203    1633.28674316       0.00000000       0.00000000       0.00000000       0.00000000       0.00000000       0.00000000       0.00000000
         0.00000000    1642.29003906    1642.23400879    1641.44409180    1640.10754395    1638.69750977    1637.01879883    1634.99670410    1633.80004883    1632.70629883    1631.64782715    1630.38781738    1628.99719238    1628.78125000    1628.95251465    1630.44995117    1630.77331543    1630.79748535    1630.53503418    1629.85327148    1630.18176270    1631.28112793    1632.35205078    1632.18676758       0.00000000       0.00000000       0.00000000       0.00000000       0.00000000       0.00000000       0.00000000
         0.00000000    1642.09204102    1641.94323730    1641.06628418    1639.68322754    1637.97375488    1636.10205078    1633.88000488    1632.45422363    1631.06103516    1629.89562988    1628.94372559    1627.72875977    1626.93994141    1627.28747559    1628.57995605    1628.66589355    1628.58422852    1628.46411133    1627.96997070    1628.38745117    1629.61791992    1630.98400879    1631.11718750    1630.88000488       0.00000000       0.00000000       0.00000000       0.00000000       0.00000000       0.00000000
         0.00000000    1641.91333008    1641.80578613    1640.80285645    1639.43005371    1637.64746094    1635.65002441    1633.30249023    1631.65576172    1629.85217285    1628.45251465    1627.34667969    1626.28137207    1625.16638184    1625.59277344    1626.34753418    1626.47497559    1626.28198242    1626.27832031    1626.16003418    1626.89001465    1628.10998535    1629.36669922    1629.64282227    1629.75830078       0.00000000       0.00000000       0.00000000       0.00000000       0.00000000       0.00000000
         0.00000000    1641.64001465    1641.43005371    1640.48596191    1639.34667969    1637.55249023    1635.69177246    1633.25671387    1631.35302734    1629.49377441    1627.53503418    1626.00671387    1624.69580078    1623.49670410    1623.49096680    1623.92175293    1624.11499023    1624.06005859    1623.90283203    1624.22424316    1625.36999512    1626.40502930    1627.68505859    1628.05322266    1628.38500977       0.00000000       0.00000000       0.00000000       0.00000000       0.00000000       0.00000000
         0.00000000       0.00000000    1640.80578613    1640.24401855    1639.23205566    1637.51171875    1635.76501465    1633.52331543    1631.64001465    1629.76745605    1627.75000000    1625.66625977    1623.64001465    1621.63720703    1621.19091797    1621.51916504    1621.71496582    1621.52502441    1621.25598145    1622.34667969    1623.46875000    1624.60754395    1626.27001953    1626.63000488    1627.03247070       0.00000000       0.00000000       0.00000000       0.00000000       0.00000000       0.00000000
         0.00000000       0.00000000    1640.35583496    1639.90332031    1639.04284668    1637.52575684    1635.83325195    1633.64331055    1631.86999512    1629.98999023    1628.05322266    1625.74780273    1623.31677246    1621.34594727    1619.38208008    1619.24597168    1619.34423828    1619.22827148    1619.07751465    1620.77746582    1621.83496094    1623.24169922    1624.94995117    1625.58996582    1625.80505371       0.00000000       0.00000000       0.00000000       0.00000000       0.00000000       0.00000000
         0.00000000       0.00000000    1639.89001465    1639.38745117    1638.63171387    1637.41357422    1635.77502441    1633.56677246    1631.70996094    1629.89672852    1627.90747070    1625.57177734    1623.04797363    1620.73596191    1618.79406738    1616.80004883    1617.04296875    1617.08593750    1617.96276855    1619.18505859    1620.03796387    1622.20410156    1623.87597656    1624.32800293    1624.57324219    1624.70996094       0.00000000       0.00000000       0.00000000       0.00000000       0.00000000
         0.00000000       0.00000000       0.00000000    1638.62207031    1638.06579590    1636.89001465    1635.43994141    1633.39001465    1631.69824219    1629.60327148    1627.42675781    1624.83251953    1622.31176758    1619.93005371    1617.83996582    1615.79504395    1614.89562988    1615.19250488    1616.72619629    1617.18750000    1619.00744629    1621.00500488    1622.42004395    1623.00402832    1623.28173828    1623.11755371       0.00000000       0.00000000       0.00000000       0.00000000       0.00000000
         0.00000000       0.00000000       0.00000000       0.00000000    1637.11499023    1636.25500488    1635.10998535    1633.23400879    1631.33410645    1629.05798340    1626.79675293    1624.40502930    1621.62597656    1619.12109375    1617.07250977    1615.20666504    1613.50280762    1613.57995605    1614.51208496    1615.58129883    1617.51281738    1619.55004883    1620.94995117    1621.26000977    1621.54504395    1621.44323730       0.00000000       0.00000000       0.00000000       0.00000000       0.00000000
         0.00000000       0.00000000       0.00000000       0.00000000       0.00000000    1635.47497559    1634.48999023    1632.76416016    1630.75830078    1628.21093750    1625.98620605    1623.53857422    1621.12719727    1618.79003906    1616.79504395    1614.80004883    1612.75000000    1611.88281250    1612.69213867    1614.13293457    1615.98889160    1617.91857910    1619.27587891    1619.59753418    1619.66003418    1619.69177246       0.00000000       0.00000000       0.00000000       0.00000000       0.00000000
         0.00000000       0.00000000       0.00000000       0.00000000       0.00000000       0.00000000    1633.71997070    1632.09997559    1630.00354004    1627.69677734    1625.51000977    1623.21997070    1620.92248535    1618.77856445    1616.56994629    1614.62597656    1612.60754395    1610.51403809    1611.06677246    1612.70703125    1614.42419434    1616.08886719    1617.17004395    1617.45666504    1617.69995117    1617.66674805    1617.23205566       0.00000000       0.00000000       0.00000000       0.00000000
         0.00000000       0.00000000       0.00000000       0.00000000       0.00000000       0.00000000       0.00000000    1631.25000000    1629.66003418    1627.50244141    1625.37500000    1623.25244141    1621.09497070    1619.12500000    1616.99206543    1614.92175293    1612.70996094    1610.38745117    1609.45410156    1610.36828613    1611.90002441    1613.53747559    1614.88330078    1615.18994141    1615.42004395    1615.40332031    1615.09252930    1614.32495117       0.00000000       0.00000000       0.00000000
         0.00000000       0.00000000       0.00000000       0.00000000       0.00000000       0.00000000       0.00000000       0.00000000    1629.06005859    1627.44750977    1625.61999512    1623.61499023    1621.75000000    1619.81750488    1617.80505371    1615.65417480    1613.58581543    1611.18322754    1608.69494629    1607.24829102    1609.14001465    1610.92138672    1612.33435059    1612.89001465    1613.12573242    1613.07995605    1612.72998047    1612.15002441    1611.30004883       0.00000000       0.00000000
         0.00000000       0.00000000       0.00000000       0.00000000       0.00000000       0.00000000       0.00000000       0.00000000       0.00000000    1626.99670410    1625.52001953    1623.84997559    1622.47497559    1620.75402832    1618.84667969    1616.69995117    1614.64172363    1612.54406738    1610.26501465    1607.82995605    1606.51208496    1608.31994629    1609.71496582    1610.42004395    1610.60754395    1610.37500000    1610.26330566    1609.90173340    1609.06005859       0.00000000       0.00000000
         0.00000000       0.00000000       0.00000000       0.00000000       0.00000000       0.00000000       0.00000000       0.00000000       0.00000000       0.00000000       0.00000000    1624.19494629    1622.48669434    1620.91333008    1619.61328125    1617.65747070    1615.59204102    1613.67675781    1611.48205566    1609.36669922    1606.84802246    1605.57202148    1607.08996582    1607.70825195    1607.59887695    1607.33996582    1607.23498535    1607.03674316    1606.78002930       0.00000000       0.00000000
         0.00000000       0.00000000       0.00000000       0.00000000       0.00000000       0.00000000       0.00000000       0.00000000       0.00000000       0.00000000       0.00000000       0.00000000    1622.20495605    1620.97998047    1619.69494629    1618.20996094    1616.35253906    1614.48596191    1612.49670410    1610.53198242    1608.18750000    1605.86999512    1604.66589355    1604.87329102    1604.34252930    1603.92138672    1604.10327148    1604.07324219    1603.97998047       0.00000000       0.00000000
         0.00000000       0.00000000       0.00000000       0.00000000       0.00000000       0.00000000       0.00000000       0.00000000       0.00000000       0.00000000       0.00000000       0.00000000       0.00000000    1620.73327637    1619.63330078    1618.54748535    1616.96594238    1615.32995605    1613.50170898    1611.73791504    1609.51501465    1607.27136230    1604.87255859    1602.63500977    1601.77331543    1600.69995117    1600.93750000    1601.11999512    1601.13171387       0.00000000       0.00000000
         0.00000000       0.00000000       0.00000000       0.00000000       0.00000000       0.00000000       0.00000000       0.00000000       0.00000000       0.00000000       0.00000000       0.00000000       0.00000000       0.00000000    1619.63244629    1618.70996094    1617.38793945    1615.99670410    1614.31591797    1612.80798340    1610.90673828    1608.94995117    1606.59802246    1604.68994141    1602.96325684    1601.38830566    1599.07824707    1598.19494629    1598.50781250       0.00000000       0.00000000
         0.00000000       0.00000000       0.00000000       0.00000000       0.00000000       0.00000000       0.00000000       0.00000000       0.00000000       0.00000000       0.00000000       0.00000000       0.00000000       0.00000000       0.00000000    1618.59753418    1617.82495117    1616.42675781    1615.06494141    1613.63244629    1612.04248047    1610.15002441    1608.30590820    1606.35168457    1604.56994629    1602.76000977    1600.51000977    1598.19995117    1596.35668945       0.00000000       0.00000000
         0.00000000       0.00000000       0.00000000       0.00000000       0.00000000       0.00000000       0.00000000       0.00000000       0.00000000       0.00000000       0.00000000       0.00000000       0.00000000       0.00000000       0.00000000    1618.09667969    1617.55505371    1617.04003906    1615.93005371    1614.43750000    1612.98999023    1611.31323242    1609.64001465    1607.82250977    1605.93005371    1603.93249512    1602.11999512    1599.64855957    1597.23864746    1595.03137207       0.00000000
         0.00000000       0.00000000       0.00000000       0.00000000       0.00000000       0.00000000       0.00000000       0.00000000       0.00000000       0.00000000       0.00000000       0.00000000       0.00000000       0.00000000       0.00000000       0.00000000    1617.61999512    1617.22998047    1616.63244629    1615.27001953    1613.77746582    1612.28747559    1610.70410156    1609.01403809    1607.06250000    1605.13208008    1603.37255859    1601.20410156    1598.73327637    1596.25000000    1593.54003906
         0.00000000       0.00000000       0.00000000       0.00000000       0.00000000       0.00000000       0.00000000       0.00000000       0.00000000       0.00000000       0.00000000       0.00000000       0.00000000       0.00000000       0.00000000       0.00000000       0.00000000    1617.47998047    1617.26208496    1616.08996582    1614.55590820    1612.86999512    1611.50671387    1609.92407227    1608.10400391    1606.27587891    1604.46752930    1602.45410156    1600.30175781    1597.96496582       0.00000000
         0.00000000       0.00000000       0.00000000       0.00000000       0.00000000       0.00000000       0.00000000       0.00000000       0.00000000       0.00000000       0.00000000       0.00000000       0.00000000       0.00000000       0.00000000       0.00000000       0.00000000       0.00000000    1617.73498535    1616.75000000    1615.28247070    1613.65002441    1612.16003418    1610.46997070    1608.74792480    1607.01000977    1605.11999512    1603.27001953    1601.32409668       0.00000000       0.00000000
         0.00000000       0.00000000       0.00000000       0.00000000       0.00000000       0.00000000       0.00000000       0.00000000       0.00000000       0.00000000       0.00000000       0.00000000       0.00000000       0.00000000       0.00000000       0.00000000       0.00000000       0.00000000    1617.71826172    1617.25793457    1615.88330078    1614.38793945    1612.86999512    1611.05749512    1609.34497070    1607.65832520    1605.85253906    1604.09753418       0.00000000       0.00000000       0.00000000
         0.00000000       0.00000000       0.00000000       0.00000000       0.00000000       0.00000000       0.00000000       0.00000000       0.00000000       0.00000000       0.00000000       0.00000000       0.00000000       0.00000000       0.00000000       0.00000000       0.00000000       0.00000000       0.00000000    1617.38403320    1616.25830078    1614.95410156    1613.53405762    1611.80822754    1610.07409668    1608.35168457       0.00000000       0.00000000       0.00000000       0.00000000       0.00000000
  botm  LAYERED
    INTERNAL  FACTOR  1.0
                  NAN              NAN              NAN              NAN              NAN              NAN              NAN              NAN    1650.59363409              NAN              NAN              NAN              NAN              NAN              NAN              NAN              NAN              NAN              NAN              NAN              NAN              NAN              NAN              NAN              NAN              NAN              NAN              NAN              NAN              NAN              NAN
                  NAN              NAN              NAN              NAN              NAN              NAN              NAN    1650.30740573    1649.80540942    1649.93635246    1649.74716908    1649.33227721              NAN              NAN              NAN              NAN              NAN              NAN              NAN              NAN              NAN              NAN              NAN              NAN              NAN              NAN              NAN              NAN              NAN              NAN              NAN
                  NAN              NAN              NAN              NAN              NAN              NAN    1649.20801423    1649.06489915    1648.83020843    1648.67031275    1648.51965713    1648.25762077    1647.81790091              NAN              NAN              NAN              NAN              NAN              NAN              NAN              NAN              NAN              NAN              NAN              NAN              NAN              NAN              NAN              NAN              NAN              NAN
                  NAN              NAN              NAN              NAN              NAN              NAN    1648.07048794    1647.86171730    1647.67749452    1647.15611992    1647.04052691    1646.97279237    1646.66220471    1646.31998961              NAN              NAN              NAN              NAN              NAN              NAN              NAN              NAN              NAN              NAN              NAN              NAN              NAN              NAN              NAN              NAN              NAN
                  NAN              NAN              NAN              NAN              NAN    1646.97902243    1646.99129008    1646.65386010    1646.36288600    1645.64318152    1645.75838046    1645.42734219    1645.61570547    1645.32589768    1644.98196996              NAN              NAN              NAN              NAN              NAN              NAN              NAN              NAN              NAN              NAN              NAN              NAN              NAN              NAN              NAN              NAN
                  NAN              NAN              NAN              NAN              NAN    1645.78841586    1645.78612668    1645.56324218    1645.24942220    1644.61776267    1644.17113588    1643.75495027    1643.87773219    1643.78907966    1643.44033181    1643.28065318    1642.65906475              NAN              NAN              NAN              NAN              NAN              NAN              NAN              NAN              NAN              NAN              NAN              NAN              NAN              NAN
                  NAN              NAN              NAN              NAN    1645.00094767    1644.70516508    1644.48914657    1644.29898392    1644.08842586    1642.99967263    1642.36830875    1641.82772022    1642.09973789    1641.93528803    1641.69245315    1641.68877877    1641.27243878    1641.03549657              NAN              NAN              NAN              NAN              NAN              NAN              NAN              NAN              NAN              NAN              NAN              NAN              NAN
                  NAN              NAN              NAN    1644.02026161    1643.87256010    1643.56571795    1643.34839817    1643.02543162    1642.50146170    1641.56713329    1640.15798340    1639.35744629    1639.83289583    1639.79702171    1639.83629541    1639.75411298    1639.73122875    1639.73050122    1639.42341395    1638.65970404              NAN              NAN              NAN              NAN              NAN              NAN              NAN              NAN              NAN              NAN              NAN
                  NAN              NAN              NAN    1642.74816893    1642.66143736    1642.21842847    1641.68319174    1641.19584684    1640.55196468    1639.46807083    1637.94497070    1636.47597656    1637.08436633    1637.23769575    1637.29893284    1637.39544484    1637.68574630    1637.94369192    1637.84043587    1637.10739377    1636.53578020    1636.06500542              NAN              NAN              NAN              NAN              NAN              NAN              NAN              NAN              NAN
                  NAN              NAN              NAN    1641.72845443    1641.25062550    1640.70916791    1640.08245492    1639.58978551    1638.80674609    1637.70903091    1635.98111932    1634.28579102    1634.97402344    1635.14837817    1635.08376465    1635.16323242    1636.13563410    1636.27974623    1636.01198350    1635.86006140    1635.46644627    1635.05734900    1634.52936018              NAN              NAN              NAN              NAN              NAN              NAN              NAN              NAN
                  NAN              NAN    1640.96537889    1640.59697383    1639.74883367    1638.73776512    1638.10690578    1637.41610326    1636.76724570    1635.73816777    1634.34920099    1632.82827148    1632.59719238    1632.88468536    1633.11255773    1633.51495265    1634.02636925    1634.19526330    1634.09242626    1634.06600401    1633.63002930    1633.88494751    1633.50084704              NAN              NAN              NAN              NAN              NAN              NAN              NAN              NAN
                  NAN    1640.34251853    1640.30937147    1639.78069980    1638.71146934    1637.41487917    1636.42049232    1635.41651527    1634.91245702    1634.07253928    1633.05687878    1631.71828613    1630.26503906    1630.63857422    1630.90749512    1631.90988375    1632.30205905    1632.16002377    1632.09799786    1631.89949953    1631.83120117    1632.42131466    1632.60057225    1631.97651416              NAN              NAN              NAN              NAN              NAN              NAN              NAN
                  NAN    1639.94949804    1639.92428325    1639.35845864    1638.10375763    1636.74415424    1635.23469435    1633.74514303    1633.04117341    1632.26667012    1631.40578517    1630.25679518    1628.84719238    1628.63125000    1628.80251465    1630.09702200    1630.08631854    1630.22237694    1630.17287588    1629.67647684    1630.03176270    1630.96147356    1631.38303078    1630.83368630              NAN              NAN              NAN              NAN              NAN              NAN              NAN
                  NAN    1639.75183117    1639.73688053    1639.12984708    1637.92994647    1636.40039997    1634.58692942    1632.87163196    1631.73060106    1630.66932017    1629.76714997    1628.79299975    1627.57875977    1626.78994141    1627.13747559    1628.11516110    1628.06994061    1628.11353911    1628.03944002    1627.79540374    1628.23745117    1629.40313989    1630.05985594    1629.72357956    1629.32168575              NAN              NAN              NAN              NAN              NAN              NAN
                  NAN    1639.60248158    1639.59030863    1638.95998429    1637.87009874    1636.38256289    1634.53728382    1632.44839822    1630.89778179    1629.52892599    1628.30251465    1627.19667969    1626.13137207    1625.01638184    1625.44277344    1626.01775804    1626.01879228    1625.88519237    1625.94487204    1625.98546722    1626.74001465    1627.86533571    1628.52724194    1628.38509053    1628.30515574              NAN              NAN              NAN              NAN              NAN              NAN
                  NAN    1639.38796433    1639.20966176    1638.65293640    1637.82792493    1636.30913230    1634.70826807    1632.46930650    1630.54080660    1629.08902211    1627.42017372    1625.85671387    1624.54580078    1623.34670410    1623.34096680    1623.64236054    1623.74771684    1623.70404514    1623.64030897    1624.07424316    1625.19950342    1626.14393952    1626.84184008    1626.92805265    1627.03700645              NAN              NAN              NAN              NAN              NAN              NAN
                  NAN              NAN    1638.66371567    1638.45750921    1637.66053048    1636.14905228    1634.70254242    1632.57900756    1630.62196270    1629.06573253    1627.26894772    1625.38424114    1623.49001465    1621.48720703    1621.04091797    1621.36916504    1621.55933969    1621.39121243    1621.10598145    1622.19667969    1623.31931765    1624.29028830    1625.36564139    1625.57129183    1625.69616056              NAN              NAN              NAN              NAN              NAN              NAN
                  NAN              NAN    1638.26244081    1638.12028282    1637.36920693    1635.98576597    1634.55272080    1632.47066914    1630.64150829    1628.92777989    1627.15460422    1625.12588708    1622.95425559    1621.19594727    1619.23208008    1619.09597168    1619.19423828    1619.07827148    1618.92751465    1620.60372684    1621.55344788    1622.75500908    1623.78096215    1624.22491114    1624.27090585              NAN              NAN              NAN              NAN              NAN              NAN