# File generated by Flopy version 3.3.5 on 03/25/2023 at 05:38:42.
BEGIN options
  SAVE_FLOWS
  NEWTON
END options

BEGIN packages
  DIS6  .\TLnewtest2sfb2.dis  dis
  IC6  .\TLnewtest2sfb2.ic  ic
  NPF6  .\TLnewtest2sfb2.npf  npf
  STO6  .\TLnewtest2sfb2.sto  sto
  OC6  .\TLnewtest2sfb2.oc  oc
  DRN6  .\TLnewtest2sfb2.drn  drn-1
  SFR6  .\TLnewtest2sfb2.sfr  sfr-1
  UZF6  .\TLnewtest2sfb2.uzf  uzf-1
  GHB6  .\TLnewtest2sfb2.ghb  ghb_0
  MVR6  .\TLnewtest2sfb2.mvr  mvr-1
END packages

