# File generated by Flopy version 3.3.5 on 03/25/2023 at 05:38:42.
BEGIN options
  auxiliary  ddrn
  AUXDEPTHNAME  ddrn
  SAVE_FLOWS
  MOVER
END options

BEGIN dimensions
  MAXBOUND  562
END dimensions

BEGIN period  1
  1 1 9    1652.80505371   10000.00000000       0.00000000
  1 2 8    1652.64404297   10000.00000000       0.00000000
  1 2 9    1652.31408691   10000.00000000       0.00000000
  1 2 10    1652.04406738   10000.00000000       0.00000000
  1 2 11    1651.37500000   10000.00000000       0.00000000
  1 2 12    1650.24670410   10000.00000000       0.00000000
  1 3 7    1651.36328125   10000.00000000       0.00000000
  1 3 8    1651.44995117   10000.00000000       0.00000000
  1 3 9    1651.50598145   10000.00000000       0.00000000
  1 3 10    1651.21997070   10000.00000000       0.00000000
  1 3 11    1650.59997559   10000.00000000       0.00000000
  1 3 12    1649.66796875   10000.00000000       0.00000000
  1 3 13    1648.60205078   10000.00000000       0.00000000
  1 4 7    1650.32202148   10000.00000000       0.00000000
  1 4 8    1650.20666504   10000.00000000       0.00000000
  1 4 9    1650.19995117   10000.00000000       0.00000000
  1 4 10    1649.60998535   10000.00000000       0.00000000
  1 4 11    1649.03796387   10000.00000000       0.00000000
  1 4 12    1648.45996094   10000.00000000       0.00000000
  1 4 13    1647.60827637   10000.00000000       0.00000000
  1 4 14    1647.09997559   10000.00000000       0.00000000
  1 5 6    1649.04333496   10000.00000000       0.00000000
  1 5 7    1649.32666016   10000.00000000       0.00000000
  1 5 8    1648.90002441   10000.00000000       0.00000000
  1 5 9    1648.43408203   10000.00000000       0.00000000
  1 5 10    1647.30749512   10000.00000000       0.00000000
  1 5 11    1646.89001465   10000.00000000       0.00000000
  1 5 12    1646.61145020   10000.00000000       0.00000000
  1 5 13    1646.49499512   10000.00000000       0.00000000
  1 5 14    1646.36499023   10000.00000000       0.00000000
  1 5 15    1646.09594727   10000.00000000       0.00000000
  1 6 6    1647.98718262   10000.00000000       0.00000000
  1 6 7    1647.95581055   10000.00000000       0.00000000
  1 6 8    1647.54003906   10000.00000000       0.00000000
  1 6 9    1646.67175293   10000.00000000       0.00000000
  1 6 10    1645.38403320   10000.00000000       0.00000000
  1 6 11    1644.60168457   10000.00000000       0.00000000
  1 6 12    1644.37744141   10000.00000000       0.00000000
  1 6 13    1644.58496094   10000.00000000       0.00000000
  1 6 14    1644.86328125   10000.00000000       0.00000000
  1 6 15    1644.56323242   10000.00000000       0.00000000
  1 6 16    1644.24499512   10000.00000000       0.00000000
  1 6 17    1643.58251953   10000.00000000       0.00000000
  1 7 5    1646.74108887   10000.00000000       0.00000000
  1 7 6    1646.80712891   10000.00000000       0.00000000
  1 7 7    1646.54199219   10000.00000000       0.00000000
  1 7 8    1645.97119141   10000.00000000       0.00000000
  1 7 9    1645.05749512   10000.00000000       0.00000000
  1 7 10    1643.40197754   10000.00000000       0.00000000
  1 7 11    1642.47595215   10000.00000000       0.00000000
  1 7 12    1641.99279785   10000.00000000       0.00000000
  1 7 13    1642.58996582   10000.00000000       0.00000000
  1 7 14    1642.80004883   10000.00000000       0.00000000
  1 7 15    1642.57995605   10000.00000000       0.00000000
  1 7 16    1642.52001953   10000.00000000       0.00000000
  1 7 17    1642.03857422   10000.00000000       0.00000000
  1 7 18    1641.73498535   10000.00000000       0.00000000
  1 8 4    1645.55004883   10000.00000000       0.00000000
  1 8 5    1645.69702148   10000.00000000       0.00000000
  1 8 6    1645.59448242   10000.00000000       0.00000000
  1 8 7    1645.25000000   10000.00000000       0.00000000
  1 8 8    1644.46862793   10000.00000000       0.00000000
  1 8 9    1643.27832031   10000.00000000       0.00000000
  1 8 10    1641.76831055   10000.00000000       0.00000000
  1 8 12    1639.50744629   10000.00000000       0.00000000
  1 8 13    1640.10595703   10000.00000000       0.00000000
  1 8 14    1640.43005371   10000.00000000       0.00000000
  1 8 15    1640.40502930   10000.00000000       0.00000000
  1 8 16    1640.23754883   10000.00000000       0.00000000
  1 8 17    1640.25329590   10000.00000000       0.00000000
  1 8 18    1640.21997070   10000.00000000       0.00000000
  1 8 19    1640.03869629   10000.00000000       0.00000000
  1 8 20    1639.16418457   10000.00000000       0.00000000
  1 9 4    1644.54003906   10000.00000000       0.00000000
  1 9 5    1644.64282227   10000.00000000       0.00000000
  1 9 6    1644.32128906   10000.00000000       0.00000000
  1 9 7    1643.79187012   10000.00000000       0.00000000
  1 9 8    1642.60583496   10000.00000000       0.00000000
  1 9 9    1641.33251953   10000.00000000       0.00000000
  1 9 10    1639.70593262   10000.00000000       0.00000000
  1 9 12    1636.62597656   10000.00000000       0.00000000
  1 9 13    1637.28417969   10000.00000000       0.00000000
  1 9 14    1637.58862305   10000.00000000       0.00000000
  1 9 15    1637.55505371   10000.00000000       0.00000000
  1 9 16    1637.63830566   10000.00000000       0.00000000
  1 9 17    1637.97253418   10000.00000000       0.00000000
  1 9 18    1638.24755859   10000.00000000       0.00000000
  1 9 19    1638.23498535   10000.00000000       0.00000000
  1 9 20    1637.47497559   10000.00000000       0.00000000
  1 9 21    1636.80322266   10000.00000000       0.00000000
  1 9 22    1636.27832031   10000.00000000       0.00000000
  1 10 4    1643.78247070   10000.00000000       0.00000000
  1 10 5    1643.49670410   10000.00000000       0.00000000
  1 10 6    1643.05004883   10000.00000000       0.00000000
  1 10 7    1642.27221680   10000.00000000       0.00000000
  1 10 8    1641.08496094   10000.00000000       0.00000000
  1 10 9    1639.72778320   10000.00000000       0.00000000
  1 10 10    1638.07434082   10000.00000000       0.00000000
  1 10 12    1634.43579102   10000.00000000       0.00000000
  1 10 13    1635.12402344   10000.00000000       0.00000000
  1 10 14    1635.37170410   10000.00000000       0.00000000
  1 10 15    1635.23376465   10000.00000000       0.00000000
  1 10 16    1635.31323242   10000.00000000       0.00000000
  1 10 17    1636.28723145   10000.00000000       0.00000000
  1 10 18    1636.68505859   10000.00000000       0.00000000
  1 10 19    1636.39001465   10000.00000000       0.00000000
  1 10 20    1636.06579590   10000.00000000       0.00000000
  1 10 21    1635.57666016   10000.00000000       0.00000000
  1 10 22    1635.43994141   10000.00000000       0.00000000
  1 10 23    1634.99255371   10000.00000000       0.00000000
  1 11 3    1643.07495117   10000.00000000       0.00000000
  1 11 4    1642.94287109   10000.00000000       0.00000000
  1 11 5    1642.23828125   10000.00000000       0.00000000
  1 11 6    1641.28271484   10000.00000000       0.00000000
  1 11 7    1640.29895020   10000.00000000       0.00000000
  1 11 8    1639.01599121   10000.00000000       0.00000000
  1 11 9    1637.92224121   10000.00000000       0.00000000
  1 11 10    1636.44140625   10000.00000000       0.00000000
  1 11 13    1632.74719238   10000.00000000       0.00000000
  1 11 14    1633.10998535   10000.00000000       0.00000000
  1 11 15    1633.21997070   10000.00000000       0.00000000
  1 11 16    1633.72497559   10000.00000000       0.00000000
  1 11 17    1634.43005371   10000.00000000       0.00000000
  1 11 18    1634.83996582   10000.00000000       0.00000000
  1 11 19    1634.57666016   10000.00000000       0.00000000
  1 11 20    1634.39331055   10000.00000000       0.00000000
  1 11 21    1633.78002930   10000.00000000       0.00000000
  1 11 22    1634.30126953   10000.00000000       0.00000000
  1 11 23    1634.22998047   10000.00000000       0.00000000
  1 12 2    1642.55712891   10000.00000000       0.00000000
  1 12 3    1642.59497070   10000.00000000       0.00000000
  1 12 4    1642.06994629   10000.00000000       0.00000000
  1 12 5    1641.00573730   10000.00000000       0.00000000
  1 12 6    1639.69494629   10000.00000000       0.00000000
  1 12 7    1638.43249512   10000.00000000       0.00000000
  1 12 8    1636.89404297   10000.00000000       0.00000000
  1 12 9    1635.96435547   10000.00000000       0.00000000
  1 12 10    1634.68408203   10000.00000000       0.00000000
  1 12 11    1633.25744629   10000.00000000       0.00000000
  1 12 13    1630.41503906   10000.00000000       0.00000000
  1 12 14    1630.78857422   10000.00000000       0.00000000
  1 12 15    1631.05749512   10000.00000000       0.00000000
  1 12 16    1632.21997070   10000.00000000       0.00000000
  1 12 17    1632.83996582   10000.00000000       0.00000000
  1 12 18    1632.82495117   10000.00000000       0.00000000
  1 12 19    1632.50000000   10000.00000000       0.00000000
  1 12 20    1632.08325195   10000.00000000       0.00000000
  1 12 21    1631.98120117   10000.00000000       0.00000000
  1 12 22    1632.74426270   10000.00000000       0.00000000
  1 12 23    1633.40283203   10000.00000000       0.00000000
  1 12 24    1633.28674316   10000.00000000       0.00000000
  1 13 2    1642.29003906   10000.00000000       0.00000000
  1 13 3    1642.23400879   10000.00000000       0.00000000
  1 13 4    1641.44409180   10000.00000000       0.00000000
  1 13 5    1640.10754395   10000.00000000       0.00000000
  1 13 6    1638.69750977   10000.00000000       0.00000000
  1 13 7    1637.01879883   10000.00000000       0.00000000
  1 13 8    1634.99670410   10000.00000000       0.00000000
  1 13 9    1633.80004883   10000.00000000       0.00000000
  1 13 10    1632.70629883   10000.00000000       0.00000000
  1 13 11    1631.64782715   10000.00000000       0.00000000
  1 13 14    1628.78125000   10000.00000000       0.00000000
  1 13 15    1628.95251465   10000.00000000       0.00000000
  1 13 16    1630.44995117   10000.00000000       0.00000000
  1 13 17    1630.77331543   10000.00000000       0.00000000
  1 13 18    1630.79748535   10000.00000000       0.00000000
  1 13 19    1630.53503418   10000.00000000       0.00000000
  1 13 20    1629.85327148   10000.00000000       0.00000000
  1 13 21    1630.18176270   10000.00000000       0.00000000
  1 13 22    1631.28112793   10000.00000000       0.00000000
  1 13 23    1632.35205078   10000.00000000       0.00000000
  1 13 24    1632.18676758   10000.00000000       0.00000000
  1 14 2    1642.09204102   10000.00000000       0.00000000
  1 14 3    1641.94323730   10000.00000000       0.00000000
  1 14 4    1641.06628418   10000.00000000       0.00000000
  1 14 5    1639.68322754   10000.00000000       0.00000000
  1 14 6    1637.97375488   10000.00000000       0.00000000
  1 14 7    1636.10205078   10000.00000000       0.00000000
  1 14 8    1633.88000488   10000.00000000       0.00000000
  1 14 9    1632.45422363   10000.00000000       0.00000000
  1 14 10    1631.06103516   10000.00000000       0.00000000
  1 14 11    1629.89562988   10000.00000000       0.00000000
  1 14 12    1628.94372559   10000.00000000       0.00000000
  1 14 14    1626.93994141   10000.00000000       0.00000000
  1 14 15    1627.28747559   10000.00000000       0.00000000
  1 14 16    1628.57995605   10000.00000000       0.00000000
  1 14 17    1628.66589355   10000.00000000       0.00000000
  1 14 18    1628.58422852   10000.00000000       0.00000000
  1 14 19    1628.46411133   10000.00000000       0.00000000
  1 14 20    1627.96997070   10000.00000000       0.00000000
  1 14 21    1628.38745117   10000.00000000       0.00000000
  1 14 22    1629.61791992   10000.00000000       0.00000000
  1 14 23    1630.98400879   10000.00000000       0.00000000
  1 14 24    1631.11718750   10000.00000000       0.00000000
  1 14 25    1630.88000488   10000.00000000       0.00000000
  1 15 2    1641.91333008   10000.00000000       0.00000000
  1 15 3    1641.80578613   10000.00000000       0.00000000
  1 15 4    1640.80285645   10000.00000000       0.00000000
  1 15 5    1639.43005371   10000.00000000       0.00000000
  1 15 6    1637.64746094   10000.00000000       0.00000000
  1 15 10    1629.85217285   10000.00000000       0.00000000
  1 15 11    1628.45251465   10000.00000000       0.00000000
  1 15 12    1627.34667969   10000.00000000       0.00000000
  1 15 14    1625.16638184   10000.00000000       0.00000000
  1 15 15    1625.59277344   10000.00000000       0.00000000
  1 15 16    1626.34753418   10000.00000000       0.00000000
  1 15 17    1626.47497559   10000.00000000       0.00000000
  1 15 18    1626.28198242   10000.00000000       0.00000000
  1 15 19    1626.27832031   10000.00000000       0.00000000
  1 15 20    1626.16003418   10000.00000000       0.00000000
  1 15 21    1626.89001465   10000.00000000       0.00000000
  1 15 22    1628.10998535   10000.00000000       0.00000000
  1 15 23    1629.36669922   10000.00000000       0.00000000
  1 15 24    1629.64282227   10000.00000000       0.00000000
  1 15 25    1629.75830078   10000.00000000       0.00000000
  1 16 2    1641.64001465   10000.00000000       0.00000000
  1 16 3    1641.43005371   10000.00000000       0.00000000
  1 16 4    1640.48596191   10000.00000000       0.00000000
  1 16 5    1639.34667969   10000.00000000       0.00000000
  1 16 6    1637.55249023   10000.00000000       0.00000000
  1 16 7    1635.69177246   10000.00000000       0.00000000
  1 16 8    1633.25671387   10000.00000000       0.00000000
  1 16 12    1626.00671387   10000.00000000       0.00000000
  1 16 14    1623.49670410   10000.00000000       0.00000000
  1 16 15    1623.49096680   10000.00000000       0.00000000
  1 16 16    1623.92175293   10000.00000000       0.00000000
  1 16 17    1624.11499023   10000.00000000       0.00000000
  1 16 19    1623.90283203   10000.00000000       0.00000000
  1 16 20    1624.22424316   10000.00000000       0.00000000
  1 16 21    1625.36999512   10000.00000000       0.00000000
  1 16 22    1626.40502930   10000.00000000       0.00000000
  1 16 23    1627.68505859   10000.00000000       0.00000000
  1 16 24    1628.05322266   10000.00000000       0.00000000
  1 16 25    1628.38500977   10000.00000000       0.00000000
  1 17 3    1640.80578613   10000.00000000       0.00000000
  1 17 4    1640.24401855   10000.00000000       0.00000000
  1 17 5    1639.23205566   10000.00000000       0.00000000
  1 17 6    1637.51171875   10000.00000000       0.00000000
  1 17 7    1635.76501465   10000.00000000       0.00000000
  1 17 8    1633.52331543   10000.00000000       0.00000000
  1 17 9    1631.64001465   10000.00000000       0.00000000
  1 17 10    1629.76745605   10000.00000000       0.00000000
  1 17 14    1621.63720703   10000.00000000       0.00000000
  1 17 15    1621.19091797   10000.00000000       0.00000000
  1 17 16    1621.51916504   10000.00000000       0.00000000
  1 17 17    1621.71496582   10000.00000000       0.00000000
  1 17 19    1621.25598145   10000.00000000       0.00000000
  1 17 20    1622.34667969   10000.00000000       0.00000000
  1 17 21    1623.46875000   10000.00000000       0.00000000
  1 17 22    1624.60754395   10000.00000000       0.00000000
  1 17 23    1626.27001953   10000.00000000       0.00000000
  1 17 24    1626.63000488   10000.00000000       0.00000000
  1 17 25    1627.03247070   10000.00000000       0.00000000
  1 18 3    1640.35583496   10000.00000000       0.00000000
  1 18 4    1639.90332031   10000.00000000       0.00000000
  1 18 5    1639.04284668   10000.00000000       0.00000000
  1 18 6    1637.52575684   10000.00000000       0.00000000
  1 18 7    1635.83325195   10000.00000000       0.00000000
  1 18 8    1633.64331055   10000.00000000       0.00000000
  1 18 9    1631.86999512   10000.00000000       0.00000000
  1 18 10    1629.98999023   10000.00000000       0.00000000
  1 18 11    1628.05322266   10000.00000000       0.00000000
  1 18 12    1625.74780273   10000.00000000       0.00000000
  1 18 15    1619.38208008   10000.00000000       0.00000000
  1 18 16    1619.24597168   10000.00000000       0.00000000
  1 18 17    1619.34423828   10000.00000000       0.00000000
  1 18 19    1619.07751465   10000.00000000       0.00000000
  1 18 20    1620.77746582   10000.00000000       0.00000000
  1 18 21    1621.83496094   10000.00000000       0.00000000
  1 18 22    1623.24169922   10000.00000000       0.00000000
  1 18 23    1624.94995117   10000.00000000       0.00000000
  1 18 24    1625.58996582   10000.00000000       0.00000000
  1 18 25    1625.80505371   10000.00000000       0.00000000
  1 19 3    1639.89001465   10000.00000000       0.00000000
  1 19 4    1639.38745117   10000.00000000       0.00000000
  1 19 5    1638.63171387   10000.00000000       0.00000000
  1 19 6    1637.41357422   10000.00000000       0.00000000
  1 19 7    1635.77502441   10000.00000000       0.00000000
  1 19 8    1633.56677246   10000.00000000       0.00000000
  1 19 9    1631.70996094   10000.00000000       0.00000000
  1 19 10    1629.89672852   10000.00000000       0.00000000
  1 19 11    1627.90747070   10000.00000000       0.00000000
  1 19 12    1625.57177734   10000.00000000       0.00000000
  1 19 13    1623.04797363   10000.00000000       0.00000000
  1 19 16    1616.80004883   10000.00000000       0.00000000
  1 19 19    1617.96276855   10000.00000000       0.00000000
  1 19 20    1619.18505859   10000.00000000       0.00000000
  1 19 21    1620.03796387   10000.00000000       0.00000000
  1 19 22    1622.20410156   10000.00000000       0.00000000
  1 19 23    1623.87597656   10000.00000000       0.00000000
  1 19 24    1624.32800293   10000.00000000       0.00000000
  1 19 25    1624.57324219   10000.00000000       0.00000000
  1 19 26    1624.70996094   10000.00000000       0.00000000
  1 20 4    1638.62207031   10000.00000000       0.00000000
  1 20 5    1638.06579590   10000.00000000       0.00000000
  1 20 6    1636.89001465   10000.00000000       0.00000000
  1 20 7    1635.43994141   10000.00000000       0.00000000
  1 20 8    1633.39001465   10000.00000000       0.00000000
  1 20 9    1631.69824219   10000.00000000       0.00000000
  1 20 10    1629.60327148   10000.00000000       0.00000000
  1 20 11    1627.42675781   10000.00000000       0.00000000
  1 20 12    1624.83251953   10000.00000000       0.00000000
  1 20 13    1622.31176758   10000.00000000       0.00000000
  1 20 14    1619.93005371   10000.00000000       0.00000000
  1 20 18    1615.19250488   10000.00000000       0.00000000
  1 20 19    1616.72619629   10000.00000000       0.00000000
  1 20 20    1617.18750000   10000.00000000       0.00000000
  1 20 21    1619.00744629   10000.00000000       0.00000000
  1 20 22    1621.00500488   10000.00000000       0.00000000
  1 20 23    1622.42004395   10000.00000000       0.00000000
  1 20 24    1623.00402832   10000.00000000       0.00000000
  1 20 25    1623.28173828   10000.00000000       0.00000000
  1 20 26    1623.11755371   10000.00000000       0.00000000
  1 21 5    1637.11499023   10000.00000000       0.00000000
  1 21 6    1636.25500488   10000.00000000       0.00000000
  1 21 7    1635.10998535   10000.00000000       0.00000000
  1 21 8    1633.23400879   10000.00000000       0.00000000
  1 21 9    1631.33410645   10000.00000000       0.00000000
  1 21 10    1629.05798340   10000.00000000       0.00000000
  1 21 11    1626.79675293   10000.00000000       0.00000000
  1 21 12    1624.40502930   10000.00000000       0.00000000
  1 21 13    1621.62597656   10000.00000000       0.00000000
  1 21 14    1619.12109375   10000.00000000       0.00000000
  1 21 15    1617.07250977   10000.00000000       0.00000000
  1 21 18    1613.57995605   10000.00000000       0.00000000
  1 21 19    1614.51208496   10000.00000000       0.00000000
  1 21 20    1615.58129883   10000.00000000       0.00000000
  1 21 21    1617.51281738   10000.00000000       0.00000000
  1 21 22    1619.55004883   10000.00000000       0.00000000
  1 21 23    1620.94995117   10000.00000000       0.00000000
  1 21 24    1621.26000977   10000.00000000       0.00000000
  1 21 25    1621.54504395   10000.00000000       0.00000000
  1 21 26    1621.44323730   10000.00000000       0.00000000
  1 22 6    1635.47497559   10000.00000000       0.00000000
  1 22 7    1634.48999023   10000.00000000       0.00000000
  1 22 8    1632.76416016   10000.00000000       0.00000000
  1 22 9    1630.75830078   10000.00000000       0.00000000
  1 22 10    1628.21093750   10000.00000000       0.00000000
  1 22 11    1625.98620605   10000.00000000       0.00000000
  1 22 12    1623.53857422   10000.00000000       0.00000000
  1 22 13    1621.12719727   10000.00000000       0.00000000
  1 22 14    1618.79003906   10000.00000000       0.00000000
  1 22 15    1616.79504395   10000.00000000       0.00000000
  1 22 18    1611.88281250   10000.00000000       0.00000000
  1 22 19    1612.69213867   10000.00000000       0.00000000
  1 22 20    1614.13293457   10000.00000000       0.00000000
  1 22 21    1615.98889160   10000.00000000       0.00000000
  1 22 22    1617.91857910   10000.00000000       0.00000000
  1 22 23    1619.27587891   10000.00000000       0.00000000
  1 22 24    1619.59753418   10000.00000000       0.00000000
  1 22 25    1619.66003418   10000.00000000       0.00000000
  1 22 26    1619.69177246   10000.00000000       0.00000000
  1 23 7    1633.71997070   10000.00000000       0.00000000
  1 23 8    1632.09997559   10000.00000000       0.00000000
  1 23 9    1630.00354004   10000.00000000       0.00000000
  1 23 10    1627.69677734   10000.00000000       0.00000000
  1 23 11    1625.51000977   10000.00000000       0.00000000
  1 23 12    1623.21997070   10000.00000000       0.00000000
  1 23 13    1620.92248535   10000.00000000       0.00000000
  1 23 14    1618.77856445   10000.00000000       0.00000000
  1 23 15    1616.56994629   10000.00000000       0.00000000
  1 23 16    1614.62597656   10000.00000000       0.00000000
  1 23 18    1610.51403809   10000.00000000       0.00000000
  1 23 19    1611.06677246   10000.00000000       0.00000000
  1 23 20    1612.70703125   10000.00000000       0.00000000
  1 23 21    1614.42419434   10000.00000000       0.00000000
  1 23 22    1616.08886719   10000.00000000       0.00000000
  1 23 23    1617.17004395   10000.00000000       0.00000000
  1 23 24    1617.45666504   10000.00000000       0.00000000
  1 23 25    1617.69995117   10000.00000000       0.00000000
  1 23 26    1617.66674805   10000.00000000       0.00000000
  1 23 27    1617.23205566   10000.00000000       0.00000000
  1 24 8    1631.25000000   10000.00000000       0.00000000
  1 24 9    1629.66003418   10000.00000000       0.00000000
  1 24 10    1627.50244141   10000.00000000       0.00000000
  1 24 11    1625.37500000   10000.00000000       0.00000000
  1 24 12    1623.25244141   10000.00000000       0.00000000
  1 24 13    1621.09497070   10000.00000000       0.00000000
  1 24 14    1619.12500000   10000.00000000       0.00000000
  1 24 15    1616.99206543   10000.00000000       0.00000000
  1 24 19    1609.45410156   10000.00000000       0.00000000
  1 24 20    1610.36828613   10000.00000000       0.00000000
  1 24 21    1611.90002441   10000.00000000       0.00000000
  1 24 22    1613.53747559   10000.00000000       0.00000000
  1 24 23    1614.88330078   10000.00000000       0.00000000
  1 24 24    1615.18994141   10000.00000000       0.00000000
  1 24 25    1615.42004395   10000.00000000       0.00000000
  1 24 26    1615.40332031   10000.00000000       0.00000000
  1 24 27    1615.09252930   10000.00000000       0.00000000
  1 24 28    1614.32495117   10000.00000000       0.00000000
  1 25 9    1629.06005859   10000.00000000       0.00000000
  1 25 10    1627.44750977   10000.00000000       0.00000000
  1 25 11    1625.61999512   10000.00000000       0.00000000
  1 25 12    1623.61499023   10000.00000000       0.00000000
  1 25 13    1621.75000000   10000.00000000       0.00000000
  1 25 14    1619.81750488   10000.00000000       0.00000000
  1 25 15    1617.80505371   10000.00000000       0.00000000
  1 25 16    1615.65417480   10000.00000000       0.00000000
  1 25 20    1607.24829102   10000.00000000       0.00000000
  1 25 21    1609.14001465   10000.00000000       0.00000000
  1 25 22    1610.92138672   10000.00000000       0.00000000
  1 25 23    1612.33435059   10000.00000000       0.00000000
  1 25 24    1612.89001465   10000.00000000       0.00000000
  1 25 25    1613.12573242   10000.00000000       0.00000000
  1 25 26    1613.07995605   10000.00000000       0.00000000
  1 25 27    1612.72998047   10000.00000000       0.00000000
  1 25 28    1612.15002441   10000.00000000       0.00000000
  1 25 29    1611.30004883   10000.00000000       0.00000000
  1 26 10    1626.99670410   10000.00000000       0.00000000
  1 26 11    1625.52001953   10000.00000000       0.00000000
  1 26 12    1623.84997559   10000.00000000       0.00000000
  1 26 13    1622.47497559   10000.00000000       0.00000000
  1 26 14    1620.75402832   10000.00000000       0.00000000
  1 26 15    1618.84667969   10000.00000000       0.00000000
  1 26 16    1616.69995117   10000.00000000       0.00000000
  1 26 17    1614.64172363   10000.00000000       0.00000000
  1 26 18    1612.54406738   10000.00000000       0.00000000
  1 26 21    1606.51208496   10000.00000000       0.00000000
  1 26 22    1608.31994629   10000.00000000       0.00000000
  1 26 23    1609.71496582   10000.00000000       0.00000000
  1 26 24    1610.42004395   10000.00000000       0.00000000
  1 26 25    1610.60754395   10000.00000000       0.00000000
  1 26 26    1610.37500000   10000.00000000       0.00000000
  1 26 27    1610.26330566   10000.00000000       0.00000000
  1 26 28    1609.90173340   10000.00000000       0.00000000
  1 26 29    1609.06005859   10000.00000000       0.00000000
  1 27 12    1624.19494629   10000.00000000       0.00000000
  1 27 13    1622.48669434   10000.00000000       0.00000000
  1 27 14    1620.91333008   10000.00000000       0.00000000
  1 27 15    1619.61328125   10000.00000000       0.00000000
  1 27 16    1617.65747070   10000.00000000       0.00000000
  1 27 17    1615.59204102   10000.00000000       0.00000000
  1 27 18    1613.67675781   10000.00000000       0.00000000
  1 27 19    1611.48205566   10000.00000000       0.00000000
  1 27 22    1605.57202148   10000.00000000       0.00000000
  1 27 23    1607.08996582   10000.00000000       0.00000000
  1 27 24    1607.70825195   10000.00000000       0.00000000
  1 27 25    1607.59887695   10000.00000000       0.00000000
  1 27 26    1607.33996582   10000.00000000       0.00000000
  1 27 27    1607.23498535   10000.00000000       0.00000000
  1 27 28    1607.03674316   10000.00000000       0.00000000
  1 27 29    1606.78002930   10000.00000000       0.00000000
  1 28 13    1622.20495605   10000.00000000       0.00000000
  1 28 14    1620.97998047   10000.00000000       0.00000000
  1 28 15    1619.69494629   10000.00000000       0.00000000
  1 28 16    1618.20996094   10000.00000000       0.00000000
  1 28 17    1616.35253906   10000.00000000       0.00000000
  1 28 18    1614.48596191   10000.00000000       0.00000000
  1 28 19    1612.49670410   10000.00000000       0.00000000
  1 28 20    1610.53198242   10000.00000000       0.00000000
  1 28 23    1604.66589355   10000.00000000       0.00000000
  1 28 24    1604.87329102   10000.00000000       0.00000000
  1 28 25    1604.34252930   10000.00000000       0.00000000
  1 28 26    1603.92138672   10000.00000000       0.00000000
  1 28 27    1604.10327148   10000.00000000       0.00000000
  1 28 28    1604.07324219   10000.00000000       0.00000000
  1 28 29    1603.97998047   10000.00000000       0.00000000
  1 29 14    1620.73327637   10000.00000000       0.00000000
  1 29 15    1619.63330078   10000.00000000       0.00000000
  1 29 16    1618.54748535   10000.00000000       0.00000000
  1 29 17    1616.96594238   10000.00000000       0.00000000
  1 29 18    1615.32995605   10000.00000000       0.00000000
  1 29 19    1613.50170898   10000.00000000       0.00000000
  1 29 20    1611.73791504   10000.00000000       0.00000000
  1 29 21    1609.51501465   10000.00000000       0.00000000
  1 29 26    1600.69995117   10000.00000000       0.00000000
  1 29 27    1600.93750000   10000.00000000       0.00000000
  1 29 28    1601.11999512   10000.00000000       0.00000000
  1 29 29    1601.13171387   10000.00000000       0.00000000
  1 30 15    1619.63244629   10000.00000000       0.00000000
  1 30 16    1618.70996094   10000.00000000       0.00000000
  1 30 17    1617.38793945   10000.00000000       0.00000000
  1 30 18    1615.99670410   10000.00000000       0.00000000
  1 30 19    1614.31591797   10000.00000000       0.00000000
  1 30 20    1612.80798340   10000.00000000       0.00000000
  1 30 21    1610.90673828   10000.00000000       0.00000000
  1 30 22    1608.94995117   10000.00000000       0.00000000
  1 30 23    1606.59802246   10000.00000000       0.00000000
  1 30 24    1604.68994141   10000.00000000       0.00000000
  1 30 29    1598.50781250   10000.00000000       0.00000000
  1 31 16    1618.59753418   10000.00000000       0.00000000
  1 31 17    1617.82495117   10000.00000000       0.00000000
  1 31 18    1616.42675781   10000.00000000       0.00000000
  1 31 19    1615.06494141   10000.00000000       0.00000000
  1 31 20    1613.63244629   10000.00000000       0.00000000
  1 31 21    1612.04248047   10000.00000000       0.00000000
  1 31 22    1610.15002441   10000.00000000       0.00000000
  1 31 23    1608.30590820   10000.00000000       0.00000000
  1 31 24    1606.35168457   10000.00000000       0.00000000
  1 31 25    1604.56994629   10000.00000000       0.00000000
  1 31 26    1602.76000977   10000.00000000       0.00000000