# File generated by Flopy version 3.3.5 on 03/25/2023 at 05:41:10.
BEGIN options
  SAVE_FLOWS
END options

BEGIN dimensions
  MAXBOUND  622
END dimensions

BEGIN period  1
  3 1 9    1593.55363635       0.00109901
  3 2 8    1598.21962766       0.00109901
  3 2 9    1594.93385183       0.00109901
  3 2 10    1592.26004754       0.00109901
  3 2 11    1588.76766022       0.00109901
  3 2 12    1586.56156017       0.00109901
  3 3 7    1595.57031673       0.00109901
  3 3 8    1596.15820586       0.00109901
  3 3 9    1595.40074606       0.00109901
  3 3 10    1593.70095182       0.00109901
  3 3 11    1591.93413887       0.00109901
  3 3 12    1589.83984418       0.00109901
  3 3 13    1588.51199283       0.00109901
  3 4 7    1592.39230155       0.00109901
  3 4 8    1593.95478850       0.00109901
  3 4 9    1593.94884386       0.00109901
  3 4 10    1593.36291400       0.00109901
  3 4 11    1593.45386144       0.00109901
  3 4 12    1591.98730852       0.00109901
  3 4 13    1589.18688487       0.00109901
  3 4 14    1587.54094016       0.00109901
  3 5 6    1583.16150037       0.00109901
  3 5 7    1588.02883268       0.00109901
  3 5 8    1590.95433550       0.00109901
  3 5 9    1591.99815000       0.00109901
  3 5 10    1592.08166419       0.00109901
  3 5 11    1592.56218812       0.00109901
  3 5 12    1592.01076204       0.00109901
  3 5 13    1590.28233391       0.00109901
  3 5 14    1587.62749121       0.00109901
  3 5 15    1586.28445067       0.00109901
  3 6 6    1580.42478714       0.00109901
  3 6 7    1585.21141200       0.00109901
  3 6 8    1588.16259225       0.00109901
  3 6 9    1590.22004676       0.00109901
  3 6 10    1590.46662401       0.00109901
  3 6 11    1592.33672106       0.00109901
  3 6 12    1592.86117782       0.00109901
  3 6 13    1591.88581291       0.00109901
  3 6 14    1588.89057623       0.00109901
  3 6 15    1586.91383539       0.00109901
  3 6 16    1587.30636326       0.00109901
  3 6 17    1588.61160538       0.00109901
  3 7 5    1579.85878758       0.00109901
  3 7 6    1578.55865980       0.00109901
  3 7 7    1581.98841589       0.00109901
  3 7 8    1584.90221528       0.00109901
  3 7 9    1587.61938357       0.00109901
  3 7 10    1588.81014815       0.00109901
  3 7 11    1591.36239146       0.00109901
  3 7 12    1593.99360128       0.00109901
  3 7 13    1594.12799002       0.00109901
  3 7 14    1590.88779076       0.00109901
  3 7 15    1587.49145363       0.00109901
  3 7 16    1586.48661053       0.00109901
  3 7 17    1587.13702625       0.00109901
  3 7 18    1587.94501275       0.00109901
  3 8 4    1579.66437881       0.00109901
  3 8 5    1580.23461690       0.00109901
  3 8 6    1579.02657089       0.00109901
  3 8 7    1580.61445593       0.00109901
  3 8 8    1582.85461853       0.00109901
  3 8 9    1585.87377503       0.00109901
  3 8 10    1587.91876259       0.00109901
  3 8 11    1591.17161786       0.00109901
  3 8 12    1594.30252144       0.00109901
  3 8 13    1594.99747747       0.00109901
  3 8 14    1591.61475715       0.00109901
  3 8 15    1587.13344377       0.00109901
  3 8 16    1585.53252253       0.00109901
  3 8 17    1584.64148590       0.00109901
  3 8 18    1584.90079664       0.00109901
  3 8 19    1587.59861212       0.00109901
  3 8 20    1594.88099875       0.00109901
  3 9 4    1577.03942213       0.00109901
  3 9 5    1581.21371881       0.00109901
  3 9 6    1580.86290612       0.00109901
  3 9 7    1581.56776150       0.00109901
  3 9 8    1581.75539986       0.00109901
  3 9 9    1584.41410201       0.00109901
  3 9 10    1587.25101231       0.00109901
  3 9 11    1590.65909441       0.00109901
  3 9 12    1594.23172479       0.00109901
  3 9 13    1595.33070958       0.00109901
  3 9 14    1593.21186775       0.00109901
  3 9 15    1588.19897538       0.00109901
  3 9 16    1584.71322036       0.00109901
  3 9 17    1582.32710984       0.00109901
  3 9 18    1581.20108618       0.00109901
  3 9 19    1583.95872186       0.00109901
  3 9 20    1591.28533064       0.00109901
  3 9 21    1599.22668198       0.00109901
  3 9 22    1602.00108672       0.00109901
  3 10 4    1575.80664851       0.00109901
  3 10 5    1580.29762696       0.00109901
  3 10 6    1580.94098059       0.00109901
  3 10 7    1582.02319102       0.00109901
  3 10 8    1582.61307541       0.00109901
  3 10 9    1585.83648612       0.00109901
  3 10 10    1589.09885695       0.00109901
  3 10 11    1591.47593641       0.00109901
  3 10 12    1593.79209510       0.00109901
  3 10 13    1595.68192250       0.00109901
  3 10 14    1593.79659829       0.00109901
  3 10 15    1591.01752364       0.00109901
  3 10 16    1587.13289780       0.00109901
  3 10 17    1583.61813203       0.00109901
  3 10 18    1580.05057230       0.00109901
  3 10 19    1582.06081392       0.00109901
  3 10 20    1588.06172964       0.00109901
  3 10 21    1596.08606826       0.00109901
  3 10 22    1599.91691118       0.00109901
  3 10 23    1599.51164265       0.00109901
  3 11 3    1573.77129088       0.00109901
  3 11 4    1573.97291337       0.00109901
  3 11 5    1577.63396070       0.00109901
  3 11 6    1578.78086064       0.00109901
  3 11 7    1580.88549255       0.00109901
  3 11 8    1582.91401477       0.00109901
  3 11 9    1586.71823111       0.00109901
  3 11 10    1590.20789572       0.00109901
  3 11 11    1592.51192993       0.00109901
  3 11 12    1594.16735056       0.00109901
  3 11 13    1594.98732544       0.00109901
  3 11 14    1595.09843526       0.00109901
  3 11 15    1593.16529009       0.00109901
  3 11 16    1589.91968408       0.00109901
  3 11 17    1584.84754423       0.00109901
  3 11 18    1581.20993914       0.00109901
  3 11 19    1581.87055658       0.00109901
  3 11 20    1586.07992582       0.00109901
  3 11 21    1591.51036244       0.00109901
  3 11 22    1596.13760005       0.00109901
  3 11 23    1596.11250428       0.00109901
  3 12 2    1570.22445289       0.00109901
  3 12 3    1571.21325543       0.00109901
  3 12 4    1572.96209491       0.00109901
  3 12 5    1575.89051105       0.00109901
  3 12 6    1576.45333469       0.00109901
  3 12 7    1578.40590217       0.00109901
  3 12 8    1580.95933877       0.00109901
  3 12 9    1586.29853576       0.00109901
  3 12 10    1591.18733387       0.00109901
  3 12 11    1594.05653039       0.00109901
  3 12 12    1594.85515855       0.00109901
  3 12 13    1594.22604464       0.00109901
  3 12 14    1594.61177597       0.00109901
  3 12 15    1593.77113878       0.00109901
  3 12 16    1593.43870019       0.00109901
  3 12 17    1589.82297401       0.00109901
  3 12 18    1585.56271435       0.00109901
  3 12 19    1583.06142570       0.00109901
  3 12 20    1585.65586960       0.00109901
  3 12 21    1590.39016985       0.00109901
  3 12 22    1590.42983920       0.00109901
  3 12 23    1590.03678267       0.00109901
  3 12 24    1589.11850565       0.00109901
  3 13 2    1567.50949107       0.00109901
  3 13 3    1569.44387565       0.00109901
  3 13 4    1572.38000940       0.00109901
  3 13 5    1575.22650284       0.00109901
  3 13 6    1574.68996608       0.00109901
  3 13 7    1575.89867197       0.00109901
  3 13 8    1578.00017781       0.00109901
  3 13 9    1583.64856522       0.00109901
  3 13 10    1588.86819087       0.00109901
  3 13 11    1593.05595989       0.00109901
  3 13 12    1594.42917972       0.00109901
  3 13 13    1594.39446102       0.00109901
  3 13 14    1594.26898262       0.00109901
  3 13 15    1593.71075479       0.00109901
  3 13 16    1594.36031573       0.00109901
  3 13 17    1591.99150052       0.00109901
  3 13 18    1589.93489078       0.00109901
  3 13 19    1587.58930387       0.00109901
  3 13 20    1588.51043271       0.00109901
  3 13 21    1589.21704991       0.00109901
  3 13 22    1588.29775777       0.00109901
  3 13 23    1582.59887854       0.00109901
  3 13 24    1580.77515988       0.00109901
  3 14 2    1566.77378604       0.00109901
  3 14 3    1568.63610396       0.00109901
  3 14 4    1571.94131073       0.00109901
  3 14 5    1574.80595773       0.00109901
  3 14 6    1573.85681960       0.00109901
  3 14 7    1574.16211982       0.00109901
  3 14 8    1575.40597696       0.00109901
  3 14 9    1580.99684378       0.00109901
  3 14 10    1586.13642848       0.00109901
  3 14 11    1591.00481270       0.00109901
  3 14 12    1593.53729308       0.00109901
  3 14 13    1593.69167913       0.00109901
  3 14 14    1593.23160108       0.00109901
  3 14 15    1593.36070421       0.00109901
  3 14 16    1593.94804838       0.00109901
  3 14 17    1594.04486454       0.00109901
  3 14 18    1592.30268998       0.00109901
  3 14 19    1590.90816573       0.00109901
  3 14 20    1591.54620799       0.00109901
  3 14 21    1590.79471698       0.00109901
  3 14 22    1584.24915210       0.00109901
  3 14 23    1577.73090024       0.00109901
  3 14 24    1573.33573900       0.00109901
  3 14 25    1574.67576952       0.00109901
  3 15 2    1566.92273511       0.00109901
  3 15 3    1567.50006513       0.00109901
  3 15 4    1570.92142172       0.00109901
  3 15 5    1573.86728803       0.00109901
  3 15 6    1573.67650402       0.00109901
  3 15 7    1573.09020221       0.00109901
  3 15 8    1573.90421123       0.00109901
  3 15 9    1578.11037086       0.00109901
  3 15 10    1583.47986769       0.00109901
  3 15 11    1588.70931604       0.00109901
  3 15 12    1591.77040115       0.00109901
  3 15 13    1592.59197121       0.00109901
  3 15 14    1592.05612857       0.00109901
  3 15 15    1592.59714989       0.00109901
  3 15 16    1592.73257896       0.00109901
  3 15 17    1592.84015142       0.00109901
  3 15 18    1592.22867841       0.00109901
  3 15 19    1592.20734537       0.00109901
  3 15 20    1592.07842393       0.00109901
  3 15 21    1590.86101474       0.00109901
  3 15 22    1585.79048146       0.00109901
  3 15 23    1577.44945957       0.00109901
  3 15 24    1571.10215890       0.00109901
  3 15 25    1570.98680321       0.00109901
  3 16 2    1567.16703208       0.00109901
  3 16 3    1566.63280115       0.00109901
  3 16 4    1569.63164315       0.00109901
  3 16 5    1572.34867438       0.00109901
  3 16 6    1573.44061298       0.00109901
  3 16 7    1572.15347425       0.00109901
  3 16 8    1572.91742372       0.00109901
  3 16 9    1576.10395567       0.00109901
  3 16 10    1581.88473158       0.00109901
  3 16 11    1586.89589993       0.00109901
  3 16 12    1590.01455117       0.00109901
  3 16 13    1591.43387030       0.00109901
  3 16 14    1590.79638808       0.00109901
  3 16 15    1590.95437737       0.00109901
  3 16 16    1590.77707206       0.00109901
  3 16 17    1590.80775573       0.00109901
  3 16 18    1590.85227074       0.00109901
  3 16 19    1590.68703627       0.00109901
  3 16 20    1590.94097268       0.00109901
  3 16 21    1590.32084139       0.00109901
  3 16 22    1585.26409190       0.00109901
  3 16 23    1578.38047595       0.00109901
  3 16 24    1571.72905416       0.00109901
  3 16 25    1569.04034993       0.00109901
  3 17 3    1566.59451560       0.00109901
  3 17 4    1569.22458070       0.00109901
  3 17 5    1571.30067904       0.00109901
  3 17 6    1572.80873290       0.00109901
  3 17 7    1571.68114238       0.00109901
  3 17 8    1572.64578907       0.00109901
  3 17 9    1574.49277419       0.00109901
  3 17 10    1579.88518108       0.00109901
  3 17 11    1584.78146683       0.00109901
  3 17 12    1588.59708633       0.00109901
  3 17 13    1590.50261879       0.00109901
  3 17 14    1589.28444351       0.00109901
  3 17 15    1588.87546900       0.00109901
  3 17 16    1588.68894042       0.00109901
  3 17 17    1588.63150961       0.00109901
  3 17 18    1588.40201805       0.00109901
  3 17 19    1588.12580020       0.00109901
  3 17 20    1589.00377608       0.00109901
  3 17 21    1588.09051369       0.00109901
  3 17 22    1583.24295634       0.00109901
  3 17 23    1576.94064713       0.00109901
  3 17 24    1570.79189156       0.00109901
  3 17 25    1568.44606824       0.00109901
  3 18 3    1568.22344875       0.00109901
  3 18 4    1569.92737031       0.00109901
  3 18 5    1571.16528999       0.00109901
  3 18 6    1571.86143060       0.00109901
  3 18 7    1571.01400062       0.00109901
  3 18 8    1571.51541016       0.00109901
  3 18 9    1573.33031978       0.00109901
  3 18 10    1577.73700444       0.00109901
  3 18 11    1583.26809816       0.00109901
  3 18 12    1587.81968856       0.00109901
  3 18 13    1589.56789826       0.00109901
  3 18 14    1588.51427467       0.00109901
  3 18 15    1586.92612847       0.00109901
  3 18 16    1586.31658088       0.00109901
  3 18 17    1586.15741357       0.00109901
  3 18 18    1586.02594458       0.00109901
  3 18 19    1586.04981708       0.00109901
  3 18 20    1586.97479073       0.00109901
  3 18 21    1585.78883283       0.00109901
  3 18 22    1578.83742112       0.00109901
  3 18 23    1572.77385592       0.00109901
  3 18 24    1567.43625927       0.00109901
  3 18 25    1567.48941470       0.00109901
  3 19 3    1569.50350144       0.00109901
  3 19 4    1571.32875154       0.00109901
  3 19 5    1571.72604700       0.00109901
  3 19 6    1570.97569567       0.00109901
  3 19 7    1570.08243998       0.00109901
  3 19 8    1569.98718273       0.00109901
  3 19 9    1571.97883373       0.00109901
  3 19 10    1575.86713913       0.00109901
  3 19 11    1582.09723873       0.00109901
  3 19 12    1587.10083148       0.00109901
  3 19 13    1588.78737847       0.00109901
  3 19 14    1587.50834033       0.00109901
  3 19 15    1585.60325620       0.00109901
  3 19 16    1583.83174229       0.00109901
  3 19 17    1583.67814791       0.00109901
  3 19 18    1583.80961159       0.00109901
  3 19 19    1584.51931447       0.00109901
  3 19 20    1584.98868246       0.00109901
  3 19 21    1583.22248358       0.00109901
  3 19 22    1576.93548668       0.00109901
  3 19 23    1568.88120904       0.00109901
  3 19 24    1563.20553341       0.00109901
  3 19 25    1563.86112840       0.00109901
  3 19 26    1563.70996725       0.00109901
  3 20 4    1571.92429768       0.00109901
  3 20 5    1572.39873347       0.00109901
  3 20 6    1571.15110613       0.00109901
  3 20 7    1569.39591869       0.00109901
  3 20 8    1568.74554657       0.00109901
  3 20 9    1571.39089892       0.00109901
  3 20 10    1575.37320903       0.00109901
  3 20 11    1581.09675108       0.00109901
  3 20 12    1585.08598806       0.00109901
  3 20 13    1586.67612675       0.00109901
  3 20 14    1586.43305396       0.00109901
  3 20 15    1584.21064608       0.00109901
  3 20 16    1582.35524096       0.00109901
  3 20 17    1581.31177124       0.00109901
  3 20 18    1582.08708304       0.00109901
  3 20 19    1583.14422370       0.00109901
  3 20 20    1583.04733514       0.00109901
  3 20 21    1582.48331174       0.00109901
  3 20 22    1576.66084520       0.00109901
  3 20 23    1568.29162237       0.00109901
  3 20 24    1560.02224999       0.00109901
  3 20 25    1560.18352952       0.00109901
  3 20 26    1560.84399196       0.00109901
  3 21 5    1571.43650937       0.00109901
  3 21 6    1570.55775499       0.00109901
  3 21 7    1569.07577721       0.00109901
  3 21 8    1569.44348465       0.00109901
  3 21 9    1572.13804600       0.00109901
  3 21 10    1575.65610066       0.00109901
  3 21 11    1579.57767121       0.00109901
  3 21 12    1583.00282298       0.00109901
  3 21 13    1585.18089013       0.00109901
  3 21 14    1585.26791690       0.00109901
  3 21 15    1583.46556536       0.00109901
  3 21 16    1581.49133427       0.00109901
  3 21 17    1580.51290069       0.00109901
  3 21 18    1581.09432165       0.00109901
  3 21 19    1581.69454826       0.00109901
  3 21 20    1581.73887171       0.00109901
  3 21 21    1582.64487582       0.00109901
  3 21 22    1577.18822863       0.00109901
  3 21 23    1568.97986911       0.00109901
  3 21 24    1559.46046341       0.00109901
  3 21 25    1557.51934810       0.00109901
  3 21 26    1558.67319326       0.00109901
  3 22 6    1570.07214322       0.00109901
  3 22 7    1569.79316566       0.00109901
  3 22 8    1571.74801788       0.00109901
  3 22 9    1574.35054212       0.00109901
  3 22 10    1578.09419435       0.00109901
  3 22 11    1580.26227910       0.00109901
  3 22 12    1581.20809100       0.00109901
  3 22 13    1583.49707594       0.00109901
  3 22 14    1584.08490346       0.00109901
  3 22 15    1583.09461834       0.00109901
  3 22 16    1580.99788477       0.00109901
  3 22 17    1579.86547229       0.00109901
  3 22 18    1580.56395984       0.00109901
  3 22 19    1581.03899067       0.00109901
  3 22 20    1581.37239818       0.00109901
  3 22 21    1581.95933198       0.00109901
  3 22 22    1577.62587468       0.00109901
  3 22 23    1569.38609377       0.00109901
  3 22 24    1559.20099694       0.00109901
  3 22 25    1555.09772870       0.00109901
  3 22 26    1555.92202905       0.00109901
  3 23 7    1570.37829876       0.00109901
  3 23 8    1573.80948406       0.00109901
  3 23 9    1577.06636137       0.00109901
  3 23 10    1580.76444328       0.00109901
  3 23 11    1581.79117632       0.00109901
  3 23 12    1581.43377044       0.00109901
  3 23 13    1583.06304144       0.00109901
  3 23 14    1583.78173614       0.00109901
  3 23 15    1582.70594098       0.00109901
  3 23 16    1580.99112349       0.00109901
  3 23 17    1580.03116659       0.00109901
  3 23 18    1579.54467378       0.00109901
  3 23 19    1580.51783540       0.00109901
  3 23 20    1580.76141440       0.00109901
  3 23 21    1581.00648612       0.00109901
  3 23 22    1576.61690627       0.00109901
  3 23 23    1568.93581200       0.00109901
  3 23 24    1558.85301752       0.00109901
  3 23 25    1554.07314313       0.00109901
  3 23 26    1553.98288001       0.00109901
  3 23 27    1556.52709308       0.00109901
  3 24 8    1575.38333796       0.00109901
  3 24 9    1579.95747956       0.00109901
  3 24 10    1584.12477939       0.00109901
  3 24 11    1583.91263832       0.00109901
  3 24 12    1583.24692417       0.00109901
  3 24 13    1581.34577978       0.00109901
  3 24 14    1581.84588621       0.00109901
  3 24 15    1582.29904679       0.00109901
  3 24 16    1580.53957132       0.00109901
  3 24 17    1580.17828225       0.00109901
  3 24 18    1579.54810254       0.00109901
  3 24 19    1579.15410156       0.00109901
  3 24 20    1579.19854834       0.00109901
  3 24 21    1579.28490262       0.00109901
  3 24 22    1575.68887417       0.00109901
  3 24 23    1570.37159593       0.00109901
  3 24 24    1561.43604554       0.00109901
  3 24 25    1556.59620829       0.00109901
  3 24 26    1556.29804421       0.00109901
  3 24 27    1560.50809936       0.00109901
  3 24 28    1564.91440601       0.00109901
  3 25 9    1583.47947219       0.00109901
  3 25 10    1587.59911272       0.00109901
  3 25 11    1586.94483090       0.00109901
  3 25 12    1582.83632769       0.00109901
  3 25 13    1579.15567570       0.00109901
  3 25 14    1577.81676792       0.00109901
  3 25 15    1579.22817686       0.00109901
  3 25 16    1579.10019641       0.00109901
  3 25 17    1580.58740615       0.00109901
  3 25 18    1579.55789571       0.00109901
  3 25 19    1578.09278596       0.00109901
  3 25 20    1576.94829102       0.00109901
  3 25 21    1577.57925828       0.00109901
  3 25 22    1575.88137779       0.00109901
  3 25 23    1571.87519997       0.00109901
  3 25 24    1566.18530172       0.00109901
  3 25 25    1563.71227195       0.00109901
  3 25 26    1562.91409516       0.00109901
  3 25 27    1566.84919732       0.00109901
  3 25 28    1569.97779901       0.00109901
  3 25 29    1569.83850068       0.00109901
  3 26 10    1589.80819481       0.00109901
  3 26 11    1588.26825127       0.00109901
  3 26 12    1583.94119459       0.00109901
  3 26 13    1578.66557576       0.00109901
  3 26 14    1573.95799501       0.00109901
  3 26 15    1574.54261858       0.00109901
  3 26 16    1576.84152366       0.00109901
  3 26 17    1578.54866740       0.00109901
  3 26 18    1579.13810617       0.00109901
  3 26 19    1578.85603072       0.00109901
  3 26 20    1577.43967746       0.00109901
  3 26 21    1575.55445837       0.00109901
  3 26 22    1575.83542424       0.00109901
  3 26 23    1574.43486158       0.00109901
  3 26 24    1572.84161987       0.00109901
  3 26 25    1570.77988546       0.00109901
  3 26 26    1570.27423261       0.00109901
  3 26 27    1572.95194305       0.00109901
  3 26 28    1573.65584940       0.00109901
  3 26 29    1571.89972347       0.00109901
  3 27 12    1584.45674380       0.00109901
  3 27 13    1577.44935907       0.00109901
  3 27 14    1572.33360728       0.00109901
  3 27 15    1569.73211340       0.00109901
  3 27 16    1572.18399427       0.00109901
  3 27 17    1576.28543563       0.00109901
  3 27 18    1577.92936294       0.00109901
  3 27 19    1578.30790012       0.00109901
  3 27 20    1577.29555332       0.00109901
  3 27 21    1575.41365033       0.00109901
  3 27 22    1573.85500584       0.00109901
  3 27 23    1574.54887076       0.00109901
  3 27 24    1574.11110739       0.00109901
  3 27 25    1573.20399825       0.00109901
  3 27 26    1573.19455105       0.00109901
  3 27 27    1573.25950137       0.00109901
  3 27 28    1573.45609396       0.00109901
  3 27 29    1571.81433096       0.00109901
  3 28 13    1577.33115085       0.00109901
  3 28 14    1571.23894545       0.00109901
  3 28 15    1569.04848437       0.00109901
  3 28 16    1567.59236697       0.00109901
  3 28 17    1570.83433306       0.00109901
  3 28 18    1574.78619229       0.00109901
  3 28 19    1575.40516044       0.00109901
  3 28 20    1576.02491634       0.00109901
  3 28 21    1575.12695611       0.00109901
  3 28 22    1574.13194405       0.00109901
  3 28 23    1572.21443436       0.00109901
  3 28 24    1572.30102724       0.00109901
  3 28 25    1571.87938060       0.00109901
  3 28 26    1571.92026566       0.00109901
  3 28 27    1571.82527471       0.00109901
  3 28 28    1571.60575410       0.00109901
  3 28 29    1570.14319275       0.00109901
  3 29 14    1572.97355780       0.00109901
  3 29 15    1570.35293329       0.00109901
  3 29 16    1566.67137779       0.00109901
  3 29 17    1566.18225425       0.00109901
  3 29 18    1569.04900586       0.00109901
  3 29 19    1569.78169413       0.00109901
  3 29 20    1571.06139809       0.00109901
  3 29 21    1573.32283683       0.00109901
  3 29 22    1572.52819921       0.00109901
  3 29 23    1572.41449302       0.00109901
  3 29 24    1570.56862540       0.00109901
  3 29 25    1569.79981378       0.00109901
  3 29 26    1569.42021468       0.00109901
  3 29 27    1569.45492342       0.00109901
  3 29 28    1569.06325388       0.00109901
  3 29 29    1568.02726498       0.00109901
  3 30 15    1573.65813318       0.00109901
  3 30 16    1570.60498695       0.00109901
  3 30 17    1567.40399822       0.00109901
  3 30 18    1561.37696268       0.00109901
  3 30 19    1562.05756280       0.00109901
  3 30 20    1563.12048873       0.00109901
  3 30 21    1566.49800405       0.00109901
  3 30 22    1569.40642540       0.00109901
  3 30 23    1571.38314097       0.00109901
  3 30 24    1571.22861564       0.00109901
  3 30 25    1570.89593526       0.00109901
  3 30 26    1569.75159298       0.00109901
  3 30 27    1567.61675768       0.00109901
  3 30 28    1567.08717424       0.00109901
  3 30 29    1566.16978783       0.00109901
  3 31 16    1576.10912917       0.00109901
  3 31 17    1569.18500304       0.00109901
  3 31 18    1561.93003157       0.00109901
  3 31 19    1556.36303404       0.00109901
  3 31 20    1557.40707844       0.00109901
  3 31 21    1559.61946263       0.00109901
  3 31 22    1562.66801004       0.00109901
  3 31 23    1567.00906835       0.00109901
  3 31 24    1569.80906374       0.00109901
  3 31 25    1569.69943117       0.00109901
  3 31 26    1569.16674493       0.00109901
  3 31 27    1568.19377978       0.00109901
  3 31 28    1567.08125814       0.00109901
  3 31 29    1565.06437685       0.00109901
  3 32 16    1579.90070708       0.00109901
  3 32 17    1574.78536021       0.00109901
  3 32 18    1566.55099011       0.00109901
  3 32 19    1560.12134929       0.00109901
  3 32 20    1554.04698245       0.00109901
  3 32 21    1554.30342744       0.00109901
  3 32 22    1555.81095215       0.00109901
  3 32 23    1560.41633220       0.00109901
  3 32 24    1563.94610286       0.00109901
  3 32 25    1566.41428788       0.00109901
  3 32 26    1569.17993122       0.00109901
  3 32 27    1568.68180925       0.00109901
  3 32 28    1567.35681706       0.00109901
  3 32 29    1566.38307802       0.00109901
  3 32 30    1563.38304747       0.00109901
  3 33 17    1579.63497901       0.00109901
  3 33 18    1571.73195190       0.00109901
  3 33 19    1563.11857987       0.00109901
  3 33 20    1555.48562899       0.00109901
  3 33 21    1553.03214403       0.00109901
  3 33 22    1551.84112482       0.00109901
  3 33 23    1552.67394659       0.00109901
  3 33 24    1556.87787041       0.00109901
  3 33 25    1562.73995901       0.00109901
  3 33 26    1567.42571200       0.00109901
  3 33 27    1568.55218472       0.00109901
  3 33 28    1568.38738951       0.00109901
  3 33 29    1567.16622781       0.00109901
  3 33 30    1564.99463121       0.00109901
  3 33 31    1561.65136472       0.00109901
  3 34 18    1572.78182658       0.00109901
  3 34 19    1563.97796670       0.00109901
  3 34 20    1556.46359765       0.00109901
  3 34 21    1552.60685003       0.00109901
  3 34 22    1548.79191516       0.00109901
  3 34 23    1549.16059528       0.00109901
  3 34 24    1552.84766120       0.00109901
  3 34 25    1559.21221796       0.00109901
  3 34 26    1564.90689395       0.00109901
  3 34 27    1567.21092572       0.00109901
  3 34 28    1568.35646834       0.00109901
  3 34 29    1567.98089625       0.00109901
  3 34 30    1566.30553741       0.00109901
  3 35 19    1564.71834356       0.00109901
  3 35 20    1557.18633385       0.00109901
  3 35 21    1553.75045897       0.00109901
  3 35 22    1549.93142946       0.00109901
  3 35 23    1550.54277030       0.00109901
  3 35 24    1552.51668780       0.00109901
  3 35 25    1558.48977355       0.00109901
  3 35 26    1561.84629259       0.00109901
  3 35 27    1565.15212906       0.00109901
  3 35 28    1567.81099998       0.00109901
  3 35 29    1568.32303022       0.00109901
  3 36 19    1565.01794281       0.00109901
  3 36 20    1557.94858500       0.00109901
  3 36 21    1555.90642776       0.00109901
  3 36 22    1554.58748954       0.00109901
  3 36 23    1554.28615164       0.00109901
  3 36 24    1555.02248759       0.00109901
  3 36 25    1558.19586758       0.00109901
  3 36 26    1560.83796290       0.00109901
  3 36 27    1564.49506744       0.00109901
  3 36 28    1568.30388973       0.00109901
  3 37 20    1560.12798362       0.00109901
  3 37 21    1557.20368397       0.00109901
  3 37 22    1556.70730670       0.00109901
  3 37 23    1557.05936081       0.00109901
  3 37 24    1556.94001221       0.00109901
  3 37 25    1557.59169080       0.00109901
  3 37 26    1560.19455633       0.00109901
END period  1

