# File generated by Flopy version 3.3.5 on 03/25/2023 at 05:38:42.
BEGIN options
  BOUNDNAMES
  SAVE_FLOWS
  BUDGET  FILEOUT  TLnewtest2sfb2.sfr.bud
  MOVER
  UNIT_CONVERSION   86400.00000000
END options

BEGIN dimensions
  NREACHES  68
END dimensions

BEGIN packagedata
  1  1 15 7       0.32000000       0.14064401       7.33604431    1635.60002441       0.01014653       0.31586390  0.035  1       1.00000000  0
  2  1 15 8       5.00000000       0.14064401       0.32934570    1633.25249023       0.01014653       0.31586390  0.035  2       1.00000000  0
  3  1 15 9       6.00180808       0.14064401       0.05044053    1631.60576172       0.01014653       0.31586390  0.035  2       1.00000000  0
  4  1 16 9       0.14142136       0.14064401      13.14690362    1631.30302734       0.01014653       0.31586390  0.035  2       1.00000000  0
  5  1 16 10       5.94440692       0.14064401       0.32950978    1629.44377441       0.01014653       0.31586390  0.035  2       1.00000000  0
  6  1 16 11       6.02523954       0.14064401       0.03567756    1627.48503418       0.01014653       0.31586390  0.035  2       1.00000000  0
  7  1 17 11       0.08485281       0.14064401      24.55711479    1627.70000000       0.01014653       0.31586390  0.035  2       1.00000000  0
  8  1 17 12       5.97754401       0.14064401       0.33897619    1625.61625977       0.01014653       0.31586390  0.035  2       1.00000000  0
  9  1 17 13       8.46867099       0.30842343       1.96819179    1623.59001465       0.01712649       0.31586390  0.035  2       1.00000000  0
  10  1 8 11       0.42000000       0.17122459       5.26907786    1640.25798340       0.01156860       0.31586390  0.035  2       1.00000000  0
  11  1 9 11       5.00000000       0.17122459       0.38339844    1638.04497070       0.01156860       0.31586390  0.035  2       1.00000000  0
  12  1 10 11       5.00000000       0.17122459       0.30983887    1636.12797852       0.01156860       0.31586390  0.035  2       1.00000000  0
  13  1 11 11       5.97009235       0.17122459       0.27646351    1634.57878418       0.01156860       0.31586390  0.035  2       1.00000000  0
  14  1 11 12       0.19798990       0.17122459       5.60627261    1632.92827148       0.01156860       0.31586390  0.035  2       1.00000000  0
  15  1 12 12       5.91955411       0.17122459       0.25009802    1631.81828613       0.01156860       0.31586390  0.035  2       1.00000000  0
  16  1 13 12       5.99352380       0.17122459       0.23202127    1630.33781738       0.01156860       0.31586390  0.035  2       1.00000000  0
  17  1 13 13       0.14142136       0.17122459       8.96917299    1628.94719238       0.01156860       0.31586390  0.035  2       1.00000000  0
  18  1 14 13       5.95269119       0.17122459       0.24314846    1627.67875977       0.01156860       0.31586390  0.035  2       1.00000000  0
  19  1 15 13       5.00000000       0.17122459       0.31711426    1626.23137207       0.01156860       0.31586390  0.035  2       1.00000000  0
  20  1 16 13       5.00000000       0.17122459       0.21115723    1624.64580078       0.01156860       0.31586390  0.035  2       1.00000000  0
  21  1 17 13       8.46867099       0.30842343  1.00000000E-05    1623.59001465       0.01712649       0.31586390  0.035  2       1.00000000  0
  22  1 17 13       8.46867099       0.30842343       0.03816918    1623.59001465       0.01712649       0.31586390  0.035  2       1.00000000  0
  23  1 18 13       0.02828427       0.30842343      69.67919355    1623.26677246       0.01712649       0.31586390  0.035  2       1.00000000  0
  24  1 18 14       7.04278354       0.30842343       0.08661140    1621.29594727       0.01712649       0.31586390  0.035  2       1.00000000  0
  25  1 19 14       0.02828427       0.30842343      68.65634011    1620.68596191       0.01712649       0.31586390  0.035  2       1.00000000  0
  26  1 19 15       7.04278354       0.30842343       0.13547223    1618.74406738       0.01712649       0.31586390  0.035  2       1.00000000  0
  27  1 20 15       0.02828427       0.30842343      72.29891038    1617.78996582       0.01712649       0.31586390  0.035  2       1.00000000  0
  28  1 20 16       6.02381818       0.30842343       0.09767541    1615.74504395       0.01712649       0.31586390  0.035  2       1.00000000  0
  29  1 21 16       6.00239682       0.30842343       0.06774231    1615.15666504       0.01712649       0.31586390  0.035  2       1.00000000  0
  30  1 22 16       0.08485281       0.30842343      24.16005700    1614.75004883       0.01712649       0.31586390  0.035  2       1.00000000  0
  31  1 22 17       8.62038672       0.39400493       1.31201290    1612.70000000       0.02016375       0.31586390  0.035  2       1.00000000  0
  32  1 16 18       0.10000000       0.13424910      25.35034166    1624.01005859       0.00983659       0.31586390  0.035  2       1.00000000  0
  33  1 17 18       5.00000000       0.13424910       0.45935059    1621.47502441       0.00983659       0.31586390  0.035  2       1.00000000  0
  34  1 18 18       6.05210245       0.13424910       0.35398178    1619.17827148       0.00983659       0.31586390  0.035  2       1.00000000  0
  35  1 19 18       0.08485281       0.13424910       0.50639158    1617.03593750       0.00983659       0.31586390  0.035  2       1.00000000  0
  36  1 19 17       5.95068109       0.13424910       0.36085598    1616.99296875       0.00983659       0.31586390  0.035  2       1.00000000  0
  37  1 20 17       5.00000000       0.13424910       0.27856445    1614.84562988       0.00983659       0.31586390  0.035  2       1.00000000  0
  38  1 21 17       5.00000000       0.13424910       0.15056152    1613.45280762       0.00983659       0.31586390  0.035  2       1.00000000  0
  39  1 22 17       8.62038672       0.39400493       0.25193219    1612.70000000       0.02016375       0.31586390  0.035  2       1.00000000  0
  40  1 24 16       5.00000000       0.10627373       0.44235840    1614.87175293       0.00841758       0.31586390  0.035  2       1.00000000  0
  41  1 24 17       5.95411255       0.39400493       0.14710076    1612.65996094       0.02016375       0.31586390  0.035  2       1.00000000  0
  42  1 25 17       0.19798990       0.10627373      12.13490140    1613.53581543       0.00841758       0.31586390  0.035  2       1.00000000  0
  43  1 25 18       6.21837662       0.39400493       0.40014965    1611.13322754       0.02016375       0.31586390  0.035  2       1.00000000  0
  44  1 25 19       9.56964646       0.53548904       0.42374122    1608.64494629       0.02474024       0.31586390  0.035  2       1.00000000  0
  45  1 22 17       8.62038672       0.39400493       0.01652548    1612.70000000       0.02016375       0.31586390  0.035  2       1.00000000  0
  46  1 23 17       5.96925974       0.39400493       0.01715740    1612.55754395       0.02016375       0.31586390  0.035  2       1.00000000  0
  47  1 24 17       5.95411255       0.39400493       0.39006817    1612.65996094       0.02016375       0.31586390  0.035  2       1.00000000  0
  48  1 24 18       6.92964645       0.39400493       0.11483650    1610.33745117       0.02016375       0.31586390  0.035  2       1.00000000  0
  49  1 25 18       6.21837662       0.39400493       0.40014965    1611.13322754       0.02016375       0.31586390  0.035  2       1.00000000  0
  50  1 25 19       9.56964646       0.53548904  1.00000000E-05    1608.64494629       0.02474024       0.31586390  0.035  2       1.00000000  0
  51  1 25 19       9.56964646       0.53548904       0.16406754    1608.64494629       0.02474024       0.31586390  0.035  2       1.00000000  0
  52  1 26 19       0.14142136       0.53548904      17.21846438    1610.21501465       0.02474024       0.31586390  0.035  2       1.00000000  0
  53  1 26 20       6.92964645       0.53548904       0.22176357    1607.77995605       0.02474024       0.31586390  0.035  2       1.00000000  0
  54  1 27 20       0.14142136       0.53548904      17.80973392    1609.31669922       0.02474024       0.31586390  0.035  2       1.00000000  0
  55  1 27 21       6.92964645       0.53548904       0.19329666    1606.79802246       0.02474024       0.31586390  0.035  2       1.00000000  0
  56  1 28 21       0.14142136       0.53548904      16.38723397    1608.13750000       0.02474024       0.31586390  0.035  2       1.00000000  0
  57  1 28 22       6.92964645       0.53548904       0.20222780    1605.81999512       0.02474024       0.31586390  0.035  2       1.00000000  0
  58  1 29 22       0.14142136       0.53548904      16.96210348    1607.22136230       0.02474024       0.31586390  0.035  2       1.00000000  0
  59  1 29 23       6.15979797       0.53548904       0.36325036    1604.82255859       0.02474024       0.31586390  0.035  2       1.00000000  0
  60  1 29 24       5.00000000       0.53548904       0.17233887    1602.58500977       0.02474024       0.31586390  0.035  2       1.00000000  0
  61  1 29 25       5.84984848       0.53548904       0.20341406    1601.72331543       0.02474024       0.31586390  0.035  2       1.00000000  0
  62  1 30 25       0.02828427       0.53548904      55.68292647    1602.91325684       0.02474024       0.31586390  0.035  2       1.00000000  0
  63  1 30 26       6.20950360       0.53548904       0.37201985    1601.33830566       0.02474024       0.31586390  0.035  2       1.00000000  0
  64  1 30 27       5.84499567       0.53548904       0.15112086    1599.02824707       0.02474024       0.31586390  0.035  2       1.00000000  0
  65  1 30 28       0.02828427       0.53548904       0.17694935    1598.14494629       0.02474024       0.31586390  0.035  2       1.00000000  0
  66  1 31 28       7.04278354       0.53548904       0.13649485    1598.14995117       0.02474024       0.31586390  0.035  2       1.00000000  0
  67  1 32 29       7.04278354       0.53548904       0.14037737    1597.18864746       0.02474024       0.31586390  0.035  2       1.00000000  0
  68  1 33 30       6.24749350       0.53548904       0.14037737    1596.20000000       0.02474024       0.31586390  0.035  1       1.00000000  0
END packagedata

BEGIN connectiondata
  1  -2
  2  1  -3
  3  2  -4
  4  3  -5
  5  4  -6
  6  5  -7
  7  6  -8
  8  7  -9
  9  8  -10
  10  9  -11
  11  10  -12
  12  11  -13
  13  12  -14
  14  13  -15
  15  14  -16
  16  15  -17
  17  16  -18
  18  17  -19
  19  18  -20
  20  19  -21
  21  20  -22
  22  21  -23
  23  22  -24
  24  23  -25
  25  24  -26
  26  25  -27
  27  26  -28
  28  27  -29
  29  28  -30
  30  29  -31
  31  30  -32
  32  31  -33
  33  32  -34
  34  33  -35
  35  34  -36
  36  35  -37
  37  36  -38
  38  37  -39
  39  38  -40
  40  39  -41
  41  40  -42
  42  41  -43
  43  42  -44
  44  43  -45
  45  44  -46
  46  45  -47
  47  46  -48
  48  47  -49
  49  48  -50
  50  49  -51
  51  50  -52
  52  51  -53
  53  52  -54
  54  53  -55
  55  54  -56
  56  55  -57
  57  56  -58
  58  57  -59
  59  58  -60
  60  59  -61
  61  60  -62
  62  61  -63
  63  62  -64
  64  63  -65
  65  64  -66
  66  65  -67
  67  66  -68
  68  67
END connectiondata

